Compound 1
 OpenBabel11072204183D

 38 40  0  0  0  0  0  0  0  0999 V2000
    7.6929   -0.2264   -0.6746 F   0  0  0  0  0  0  0  0  0  0  0  0
    7.0558    0.8725   -1.1705 C   0  0  0  0  0  0  0  0  0  0  0  0
    6.5058    1.5021   -0.0993 F   0  0  0  0  0  0  0  0  0  0  0  0
    8.0423    1.6957   -1.6243 F   0  0  0  0  0  0  0  0  0  0  0  0
    6.0463    0.5512   -2.2443 C   0  0  0  0  0  0  0  0  0  0  0  0
    5.8613   -0.7623   -2.6788 C   0  0  0  0  0  0  0  0  0  0  0  0
    5.3033    1.5695   -2.8586 C   0  0  0  0  0  0  0  0  0  0  0  0
    5.0206   -1.0381   -3.7600 C   0  0  0  0  0  0  0  0  0  0  0  0
    4.4539    1.2845   -3.9376 C   0  0  0  0  0  0  0  0  0  0  0  0
    4.3510   -0.0155   -4.4494 C   0  0  0  0  0  0  0  0  0  0  0  0
    3.5443   -0.2390   -5.6042 N   0  0  0  0  0  0  0  0  0  0  0  0
    3.5246   -1.4632   -6.2847 C   0  0  0  0  0  0  0  0  0  0  0  0
    3.9374   -1.5029   -7.6383 N   0  0  0  0  0  0  0  0  0  0  0  0
    3.1065   -2.6130   -5.7281 C   0  0  0  0  0  0  0  0  0  0  0  0
    4.3071   -0.4835   -8.4690 N   0  0  0  0  0  0  0  0  0  0  0  0
    3.9996   -2.7178   -8.3364 C   0  0  0  0  0  0  0  0  0  0  0  0
    3.3351   -3.8636   -6.5045 C   0  0  0  0  0  0  0  0  0  0  0  0
    4.5200   -1.1298   -9.6239 C   0  0  0  0  0  0  0  0  0  0  0  0
    3.7378   -3.9134   -7.7379 N   0  0  0  0  0  0  0  0  0  0  0  0
    4.3531   -2.4857   -9.5774 N   0  0  0  0  0  0  0  0  0  0  0  0
    3.1380   -5.1626   -5.7678 C   0  0  0  0  0  0  0  0  0  0  0  0
    4.8427   -0.4365  -10.9062 C   0  0  0  0  0  0  0  0  0  0  0  0
    4.9693   -1.3949  -12.0942 C   0  0  0  0  0  0  0  0  0  0  0  0
    3.7483   -2.0910  -12.3410 O   0  0  0  0  0  0  0  0  0  0  0  0
    6.3953   -1.5841   -2.2027 H   0  0  0  0  0  0  0  0  0  0  0  0
    5.4024    2.5979   -2.5150 H   0  0  0  0  0  0  0  0  0  0  0  0
    4.9550   -2.0752   -4.0678 H   0  0  0  0  0  0  0  0  0  0  0  0
    3.8970    2.0992   -4.3952 H   0  0  0  0  0  0  0  0  0  0  0  0
    3.6674    0.5403   -6.2597 H   0  0  0  0  0  0  0  0  0  0  0  0
    2.7043   -2.6701   -4.7257 H   0  0  0  0  0  0  0  0  0  0  0  0
    2.9565   -4.9920   -4.7025 H   0  0  0  0  0  0  0  0  0  0  0  0
    4.0422   -5.7704   -5.8691 H   0  0  0  0  0  0  0  0  0  0  0  0
    2.2914   -5.6994   -6.1984 H   0  0  0  0  0  0  0  0  0  0  0  0
    5.7813    0.1166  -10.7961 H   0  0  0  0  0  0  0  0  0  0  0  0
    4.0447    0.2846  -11.1152 H   0  0  0  0  0  0  0  0  0  0  0  0
    5.7629   -2.1356  -11.9416 H   0  0  0  0  0  0  0  0  0  0  0  0
    5.2097   -0.8323  -13.0022 H   0  0  0  0  0  0  0  0  0  0  0  0
    3.6121   -2.6672  -11.5588 H   0  0  0  0  0  0  0  0  0  0  0  0
  1  2  1  0  0  0  0
  2  3  1  0  0  0  0
  2  4  1  0  0  0  0
  2  5  1  0  0  0  0
  5  6  2  0  0  0  0
  5  7  1  0  0  0  0
  6  8  1  0  0  0  0
  6 25  1  0  0  0  0
  7  9  2  0  0  0  0
  7 26  1  0  0  0  0
  8 10  2  0  0  0  0
  8 27  1  0  0  0  0
  9 10  1  0  0  0  0
  9 28  1  0  0  0  0
 10 11  1  0  0  0  0
 11 12  1  0  0  0  0
 11 29  1  0  0  0  0
 12 13  1  0  0  0  0
 12 14  2  0  0  0  0
 13 15  1  0  0  0  0
 13 16  1  0  0  0  0
 14 17  1  0  0  0  0
 14 30  1  0  0  0  0
 15 18  2  0  0  0  0
 16 19  1  0  0  0  0
 16 20  2  0  0  0  0
 17 21  1  0  0  0  0
 17 19  2  0  0  0  0
 18 22  1  0  0  0  0
 18 20  1  0  0  0  0
 21 31  1  0  0  0  0
 21 32  1  0  0  0  0
 21 33  1  0  0  0  0
 22 23  1  0  0  0  0
 22 34  1  0  0  0  0
 22 35  1  0  0  0  0
 23 24  1  0  0  0  0
 23 36  1  0  0  0  0
 23 37  1  0  0  0  0
 24 38  1  0  0  0  0
M  END
>  <Molecule Name>
1282021

>  <MolRegNo>
1282021

>  <m>
=

>  <Value>
930

>  <Unit>
nM

>  <Type>
IC50

>  <pIC50>
6.03

>  <Ligand Efficiency>
0.34

>  <Binding Efficiency>
17.88

>  <Surface Efficiency>
8.01

>  <Assay Index>
642520

>  <Assay Category>


>  <Assay Organism>
Plasmodium falciparum

>  <Target ID>
100588

>  <Target Name>
Dihydroorotate dehydrogenase

>  <Target Organism>
Plasmodium falciparum

>  <Target Description>
Target is a single protein chain

>  <Sequence Accession>
Q54A96

>  <Reference>
J. Med. Chem. 54 (15), 5540-5561 (2011)

>  <Pubmed ID>
21696174

>  <DOI>
10.1021/jm200592f

$$$$
Compound 2
 OpenBabel11072204183D

 32 34  0  0  0  0  0  0  0  0999 V2000
    9.3809    2.8545   -3.5904 Cl  0  0  0  0  0  0  0  0  0  0  0  0
    8.5256    2.1435   -2.2769 C   0  0  0  0  0  0  0  0  0  0  0  0
    7.2281    2.5676   -1.9881 C   0  0  0  0  0  0  0  0  0  0  0  0
    9.1369    1.1613   -1.5065 C   0  0  0  0  0  0  0  0  0  0  0  0
    6.5101    2.0087   -0.9211 C   0  0  0  0  0  0  0  0  0  0  0  0
    8.4359    0.5887   -0.4465 C   0  0  0  0  0  0  0  0  0  0  0  0
    5.2391    2.4768   -0.5448 N   0  0  0  0  0  0  0  0  0  0  0  0
    7.1310    1.0090   -0.1594 C   0  0  0  0  0  0  0  0  0  0  0  0
    4.7633    3.7849   -0.5210 C   0  0  0  0  0  0  0  0  0  0  0  0
    3.3656    3.9737   -0.4062 N   0  0  0  0  0  0  0  0  0  0  0  0
    5.5338    4.8925   -0.5288 C   0  0  0  0  0  0  0  0  0  0  0  0
    2.3708    3.0357   -0.3462 N   0  0  0  0  0  0  0  0  0  0  0  0
    2.8034    5.2540   -0.3121 C   0  0  0  0  0  0  0  0  0  0  0  0
    4.8446    6.2155   -0.4600 C   0  0  0  0  0  0  0  0  0  0  0  0
    1.2809    3.8019   -0.1796 C   0  0  0  0  0  0  0  0  0  0  0  0
    3.5615    6.3843   -0.3566 N   0  0  0  0  0  0  0  0  0  0  0  0
    1.5030    5.1470   -0.1658 N   0  0  0  0  0  0  0  0  0  0  0  0
    5.7128    7.4481   -0.5126 C   0  0  0  0  0  0  0  0  0  0  0  0
   -0.0972    3.2396   -0.0270 C   0  0  0  0  0  0  0  0  0  0  0  0
   -0.1860    1.8489   -0.3543 O   0  0  0  0  0  0  0  0  0  0  0  0
    6.7641    3.3209   -2.6191 H   0  0  0  0  0  0  0  0  0  0  0  0
   10.1533    0.8398   -1.7220 H   0  0  0  0  0  0  0  0  0  0  0  0
    8.9080   -0.1763    0.1656 H   0  0  0  0  0  0  0  0  0  0  0  0
    4.5796    1.7779   -0.2017 H   0  0  0  0  0  0  0  0  0  0  0  0
    6.6137    0.5659    0.6885 H   0  0  0  0  0  0  0  0  0  0  0  0
    6.6146    4.8724   -0.5487 H   0  0  0  0  0  0  0  0  0  0  0  0
    6.7704    7.1932   -0.6167 H   0  0  0  0  0  0  0  0  0  0  0  0
    5.5760    8.0242    0.4071 H   0  0  0  0  0  0  0  0  0  0  0  0
    5.4122    8.0624   -1.3665 H   0  0  0  0  0  0  0  0  0  0  0  0
   -0.7924    3.7781   -0.6781 H   0  0  0  0  0  0  0  0  0  0  0  0
   -0.4313    3.3648    1.0080 H   0  0  0  0  0  0  0  0  0  0  0  0
    0.6747    1.6256   -0.7560 H   0  0  0  0  0  0  0  0  0  0  0  0
  1  2  1  0  0  0  0
  2  3  2  0  0  0  0
  2  4  1  0  0  0  0
  3  5  1  0  0  0  0
  3 21  1  0  0  0  0
  4  6  2  0  0  0  0
  4 22  1  0  0  0  0
  5  7  1  0  0  0  0
  5  8  2  0  0  0  0
  6  8  1  0  0  0  0
  6 23  1  0  0  0  0
  7  9  1  0  0  0  0
  7 24  1  0  0  0  0
  8 25  1  0  0  0  0
  9 10  1  0  0  0  0
  9 11  2  0  0  0  0
 10 12  1  0  0  0  0
 10 13  1  0  0  0  0
 11 14  1  0  0  0  0
 11 26  1  0  0  0  0
 12 15  2  0  0  0  0
 13 16  1  0  0  0  0
 13 17  2  0  0  0  0
 14 18  1  0  0  0  0
 14 16  2  0  0  0  0
 15 19  1  0  0  0  0
 15 17  1  0  0  0  0
 18 27  1  0  0  0  0
 18 28  1  0  0  0  0
 18 29  1  0  0  0  0
 19 20  1  0  0  0  0
 19 30  1  0  0  0  0
 19 31  1  0  0  0  0
 20 32  1  0  0  0  0
M  END
>  <Molecule Name>
1282020

>  <MolRegNo>
1282020

>  <m>
=

>  <Value>
6100

>  <Unit>
nM

>  <Type>
IC50

>  <pIC50>
5.21

>  <Ligand Efficiency>
0.36

>  <Binding Efficiency>
18

>  <Surface Efficiency>
6.92

>  <Assay Index>
642520

>  <Assay Category>


>  <Assay Organism>
Plasmodium falciparum

>  <Target ID>
100588

>  <Target Name>
Dihydroorotate dehydrogenase

>  <Target Organism>
Plasmodium falciparum

>  <Target Description>
Target is a single protein chain

>  <Sequence Accession>
Q54A96

>  <Reference>
J. Med. Chem. 54 (15), 5540-5561 (2011)

>  <Pubmed ID>
21696174

>  <DOI>
10.1021/jm200592f

$$$$
Compound 3
 OpenBabel11072204183D

 32 34  0  0  0  0  0  0  0  0999 V2000
    3.4845    1.1906    4.0026 Cl  0  0  0  0  0  0  0  0  0  0  0  0
    4.4297    0.8251    2.6139 C   0  0  0  0  0  0  0  0  0  0  0  0
    4.9118   -0.4641    2.4311 C   0  0  0  0  0  0  0  0  0  0  0  0
    4.7197    1.8168    1.6818 C   0  0  0  0  0  0  0  0  0  0  0  0
    5.7261   -0.7491    1.3313 C   0  0  0  0  0  0  0  0  0  0  0  0
    5.5296    1.5240    0.5753 C   0  0  0  0  0  0  0  0  0  0  0  0
    6.0833    0.2454    0.4052 C   0  0  0  0  0  0  0  0  0  0  0  0
    6.9313    0.0080   -0.7167 N   0  0  0  0  0  0  0  0  0  0  0  0
    7.6349   -1.1878   -0.9060 C   0  0  0  0  0  0  0  0  0  0  0  0
    9.0423   -1.1462   -0.9727 N   0  0  0  0  0  0  0  0  0  0  0  0
    7.0391   -2.3849   -1.0405 C   0  0  0  0  0  0  0  0  0  0  0  0
    9.8796   -0.0646   -0.9590 N   0  0  0  0  0  0  0  0  0  0  0  0
    9.8007   -2.3203   -1.0722 C   0  0  0  0  0  0  0  0  0  0  0  0
    7.9243   -3.5808   -1.0148 C   0  0  0  0  0  0  0  0  0  0  0  0
   11.0799   -0.6432   -1.0986 C   0  0  0  0  0  0  0  0  0  0  0  0
    9.2219   -3.5527   -1.0466 N   0  0  0  0  0  0  0  0  0  0  0  0
   11.0744   -2.0119   -1.1531 N   0  0  0  0  0  0  0  0  0  0  0  0
    7.2449   -4.9219   -0.8695 C   0  0  0  0  0  0  0  0  0  0  0  0
   12.3708    0.1006   -1.2074 C   0  0  0  0  0  0  0  0  0  0  0  0
   13.3512   -0.6353   -1.9538 O   0  0  0  0  0  0  0  0  0  0  0  0
    4.6777   -1.2511    3.1439 H   0  0  0  0  0  0  0  0  0  0  0  0
    4.3283    2.8217    1.8134 H   0  0  0  0  0  0  0  0  0  0  0  0
    6.0930   -1.7657    1.2503 H   0  0  0  0  0  0  0  0  0  0  0  0
    5.7333    2.3108   -0.1459 H   0  0  0  0  0  0  0  0  0  0  0  0
    7.5405    0.8202   -0.8638 H   0  0  0  0  0  0  0  0  0  0  0  0
    5.9646   -2.5119   -1.0688 H   0  0  0  0  0  0  0  0  0  0  0  0
    6.1668   -4.8082   -0.7247 H   0  0  0  0  0  0  0  0  0  0  0  0
    7.6559   -5.4378    0.0050 H   0  0  0  0  0  0  0  0  0  0  0  0
    7.4284   -5.5211   -1.7632 H   0  0  0  0  0  0  0  0  0  0  0  0
   12.7837    0.2775   -0.2099 H   0  0  0  0  0  0  0  0  0  0  0  0
   12.2297    1.0642   -1.7043 H   0  0  0  0  0  0  0  0  0  0  0  0
   13.1259   -1.5765   -1.8107 H   0  0  0  0  0  0  0  0  0  0  0  0
  1  2  1  0  0  0  0
  2  3  2  0  0  0  0
  2  4  1  0  0  0  0
  3  5  1  0  0  0  0
  3 21  1  0  0  0  0
  4  6  2  0  0  0  0
  4 22  1  0  0  0  0
  5  7  2  0  0  0  0
  5 23  1  0  0  0  0
  6  7  1  0  0  0  0
  6 24  1  0  0  0  0
  7  8  1  0  0  0  0
  8  9  1  0  0  0  0
  8 25  1  0  0  0  0
  9 10  1  0  0  0  0
  9 11  2  0  0  0  0
 10 12  1  0  0  0  0
 10 13  1  0  0  0  0
 11 14  1  0  0  0  0
 11 26  1  0  0  0  0
 12 15  2  0  0  0  0
 13 16  1  0  0  0  0
 13 17  2  0  0  0  0
 14 18  1  0  0  0  0
 14 16  2  0  0  0  0
 15 19  1  0  0  0  0
 15 17  1  0  0  0  0
 18 27  1  0  0  0  0
 18 28  1  0  0  0  0
 18 29  1  0  0  0  0
 19 20  1  0  0  0  0
 19 30  1  0  0  0  0
 19 31  1  0  0  0  0
 20 32  1  0  0  0  0
M  END
>  <Molecule Name>
1282019

>  <MolRegNo>
1282019

>  <m>
=

>  <Value>
5300

>  <Unit>
nM

>  <Type>
IC50

>  <pIC50>
5.28

>  <Ligand Efficiency>
0.36

>  <Binding Efficiency>
18.21

>  <Surface Efficiency>
7

>  <Assay Index>
642520

>  <Assay Category>


>  <Assay Organism>
Plasmodium falciparum

>  <Target ID>
100588

>  <Target Name>
Dihydroorotate dehydrogenase

>  <Target Organism>
Plasmodium falciparum

>  <Target Description>
Target is a single protein chain

>  <Sequence Accession>
Q54A96

>  <Reference>
J. Med. Chem. 54 (15), 5540-5561 (2011)

>  <Pubmed ID>
21696174

>  <DOI>
10.1021/jm200592f

$$$$
Compound 4
 OpenBabel11072204193D

 39 41  0  0  0  0  0  0  0  0999 V2000
    9.2874    2.6914   -3.5463 Cl  0  0  0  0  0  0  0  0  0  0  0  0
    8.4310    2.0253   -2.2095 C   0  0  0  0  0  0  0  0  0  0  0  0
    7.1421    2.4826   -1.9157 C   0  0  0  0  0  0  0  0  0  0  0  0
    9.0240    1.0328   -1.4376 C   0  0  0  0  0  0  0  0  0  0  0  0
    6.4149    1.9473   -0.8395 C   0  0  0  0  0  0  0  0  0  0  0  0
    8.3194    0.4937   -0.3638 C   0  0  0  0  0  0  0  0  0  0  0  0
    5.1470    2.4312   -0.4607 N   0  0  0  0  0  0  0  0  0  0  0  0
    7.0267    0.9469   -0.0720 C   0  0  0  0  0  0  0  0  0  0  0  0
    4.6632    3.7376   -0.4659 C   0  0  0  0  0  0  0  0  0  0  0  0
    3.2590    3.9333   -0.3649 N   0  0  0  0  0  0  0  0  0  0  0  0
    5.4354    4.8425   -0.4996 C   0  0  0  0  0  0  0  0  0  0  0  0
    2.2515    3.0134   -0.2798 N   0  0  0  0  0  0  0  0  0  0  0  0
    2.7045    5.2232   -0.3385 C   0  0  0  0  0  0  0  0  0  0  0  0
    4.7553    6.1696   -0.4559 C   0  0  0  0  0  0  0  0  0  0  0  0
    1.1697    3.7967   -0.2621 C   0  0  0  0  0  0  0  0  0  0  0  0
    3.4726    6.3473   -0.3779 N   0  0  0  0  0  0  0  0  0  0  0  0
    1.3968    5.1348   -0.2839 N   0  0  0  0  0  0  0  0  0  0  0  0
    5.6315    7.3965   -0.5028 C   0  0  0  0  0  0  0  0  0  0  0  0
   -0.0335    3.1821   -0.2195 O   0  0  0  0  0  0  0  0  0  0  0  0
   -1.0971    4.1147   -0.4473 C   0  0  0  0  0  0  0  0  0  0  0  0
   -2.4558    3.4320   -0.2808 C   0  0  0  0  0  0  0  0  0  0  0  0
   -3.4910    4.3682   -0.5966 O   0  0  0  0  0  0  0  0  0  0  0  0
   -4.7894    3.8052   -0.4621 C   0  0  0  0  0  0  0  0  0  0  0  0
    6.6933    3.2403   -2.5527 H   0  0  0  0  0  0  0  0  0  0  0  0
   10.0273    0.6810   -1.6631 H   0  0  0  0  0  0  0  0  0  0  0  0
    8.7792   -0.2748    0.2539 H   0  0  0  0  0  0  0  0  0  0  0  0
    4.4844    1.7345   -0.1175 H   0  0  0  0  0  0  0  0  0  0  0  0
    6.5068    0.5249    0.7848 H   0  0  0  0  0  0  0  0  0  0  0  0
    6.5160    4.8166   -0.5187 H   0  0  0  0  0  0  0  0  0  0  0  0
    6.6875    7.1353   -0.6068 H   0  0  0  0  0  0  0  0  0  0  0  0
    5.4970    7.9706    0.4186 H   0  0  0  0  0  0  0  0  0  0  0  0
    5.3355    8.0156   -1.3548 H   0  0  0  0  0  0  0  0  0  0  0  0
   -1.0246    4.5218   -1.4646 H   0  0  0  0  0  0  0  0  0  0  0  0
   -1.0472    4.9552    0.2581 H   0  0  0  0  0  0  0  0  0  0  0  0
   -2.5735    3.0836    0.7519 H   0  0  0  0  0  0  0  0  0  0  0  0
   -2.5263    2.5605   -0.9418 H   0  0  0  0  0  0  0  0  0  0  0  0
   -5.5245    4.5701   -0.7321 H   0  0  0  0  0  0  0  0  0  0  0  0
   -4.9711    3.5001    0.5725 H   0  0  0  0  0  0  0  0  0  0  0  0
   -4.9125    2.9536   -1.1371 H   0  0  0  0  0  0  0  0  0  0  0  0
  1  2  1  0  0  0  0
  2  3  2  0  0  0  0
  2  4  1  0  0  0  0
  3  5  1  0  0  0  0
  3 24  1  0  0  0  0
  4  6  2  0  0  0  0
  4 25  1  0  0  0  0
  5  7  1  0  0  0  0
  5  8  2  0  0  0  0
  6  8  1  0  0  0  0
  6 26  1  0  0  0  0
  7  9  1  0  0  0  0
  7 27  1  0  0  0  0
  8 28  1  0  0  0  0
  9 10  1  0  0  0  0
  9 11  2  0  0  0  0
 10 12  1  0  0  0  0
 10 13  1  0  0  0  0
 11 14  1  0  0  0  0
 11 29  1  0  0  0  0
 12 15  2  0  0  0  0
 13 16  1  0  0  0  0
 13 17  2  0  0  0  0
 14 18  1  0  0  0  0
 14 16  2  0  0  0  0
 15 19  1  0  0  0  0
 15 17  1  0  0  0  0
 18 30  1  0  0  0  0
 18 31  1  0  0  0  0
 18 32  1  0  0  0  0
 19 20  1  0  0  0  0
 20 21  1  0  0  0  0
 20 33  1  0  0  0  0
 20 34  1  0  0  0  0
 21 22  1  0  0  0  0
 21 35  1  0  0  0  0
 21 36  1  0  0  0  0
 22 23  1  0  0  0  0
 23 37  1  0  0  0  0
 23 38  1  0  0  0  0
 23 39  1  0  0  0  0
M  END
>  <Molecule Name>
1281996

>  <MolRegNo>
1281996

>  <m>
=

>  <Value>
4900

>  <Unit>
nM

>  <Type>
IC50

>  <pIC50>
5.31

>  <Ligand Efficiency>
0.32

>  <Binding Efficiency>
15.91

>  <Surface Efficiency>
7.22

>  <Assay Index>
642520

>  <Assay Category>


>  <Assay Organism>
Plasmodium falciparum

>  <Target ID>
100588

>  <Target Name>
Dihydroorotate dehydrogenase

>  <Target Organism>
Plasmodium falciparum

>  <Target Description>
Target is a single protein chain

>  <Sequence Accession>
Q54A96

>  <Reference>
J. Med. Chem. 54 (15), 5540-5561 (2011)

>  <Pubmed ID>
21696174

>  <DOI>
10.1021/jm200592f

$$$$
Compound 5
 OpenBabel11072204193D

 38 40  0  0  0  0  0  0  0  0999 V2000
    7.5979    0.6608   -0.7535 F   0  0  0  0  0  0  0  0  0  0  0  0
    6.8491    1.7823   -0.5515 C   0  0  0  0  0  0  0  0  0  0  0  0
    6.3013    1.6475    0.6863 F   0  0  0  0  0  0  0  0  0  0  0  0
    7.7413    2.8078   -0.4593 F   0  0  0  0  0  0  0  0  0  0  0  0
    5.8189    2.0187   -1.6289 C   0  0  0  0  0  0  0  0  0  0  0  0
    5.7088    1.1464   -2.7139 C   0  0  0  0  0  0  0  0  0  0  0  0
    4.9815    3.1427   -1.5906 C   0  0  0  0  0  0  0  0  0  0  0  0
    4.8492    1.4407   -3.7764 C   0  0  0  0  0  0  0  0  0  0  0  0
    4.1143    3.4282   -2.6568 C   0  0  0  0  0  0  0  0  0  0  0  0
    4.0838    2.6167   -3.7992 C   0  0  0  0  0  0  0  0  0  0  0  0
    3.2554    2.9970   -4.8978 N   0  0  0  0  0  0  0  0  0  0  0  0
    3.2808    2.3337   -6.1304 C   0  0  0  0  0  0  0  0  0  0  0  0
    3.6932    3.0386   -7.2886 N   0  0  0  0  0  0  0  0  0  0  0  0
    2.9369    1.0406   -6.2791 C   0  0  0  0  0  0  0  0  0  0  0  0
    4.0124    4.3561   -7.4383 N   0  0  0  0  0  0  0  0  0  0  0  0
    3.8429    2.3802   -8.5175 C   0  0  0  0  0  0  0  0  0  0  0  0
    3.2147    0.4099   -7.5968 C   0  0  0  0  0  0  0  0  0  0  0  0
    4.3546    4.4018   -8.7279 C   0  0  0  0  0  0  0  0  0  0  0  0
    3.6218    1.0415   -8.6554 N   0  0  0  0  0  0  0  0  0  0  0  0
    4.2693    3.2341   -9.4173 N   0  0  0  0  0  0  0  0  0  0  0  0
    3.0674   -1.0882   -7.6776 C   0  0  0  0  0  0  0  0  0  0  0  0
    4.7429    5.6001   -9.2133 O   0  0  0  0  0  0  0  0  0  0  0  0
    5.3898    5.4621  -10.4808 C   0  0  0  0  0  0  0  0  0  0  0  0
    5.6246    6.8380  -11.0736 C   0  0  0  0  0  0  0  0  0  0  0  0
    6.3176    0.2442   -2.7626 H   0  0  0  0  0  0  0  0  0  0  0  0
    5.0205    3.8206   -0.7388 H   0  0  0  0  0  0  0  0  0  0  0  0
    4.8459    0.7396   -4.6031 H   0  0  0  0  0  0  0  0  0  0  0  0
    3.4852    4.3138   -2.5969 H   0  0  0  0  0  0  0  0  0  0  0  0
    3.3162    4.0130   -5.0280 H   0  0  0  0  0  0  0  0  0  0  0  0
    2.5676    0.4346   -5.4600 H   0  0  0  0  0  0  0  0  0  0  0  0
    2.8346   -1.5191   -6.6999 H   0  0  0  0  0  0  0  0  0  0  0  0
    4.0103   -1.5202   -8.0284 H   0  0  0  0  0  0  0  0  0  0  0  0
    2.2708   -1.3396   -8.3813 H   0  0  0  0  0  0  0  0  0  0  0  0
    4.7805    4.8810  -11.1845 H   0  0  0  0  0  0  0  0  0  0  0  0
    6.3562    4.9625  -10.3392 H   0  0  0  0  0  0  0  0  0  0  0  0
    4.6672    7.3249  -11.3042 H   0  0  0  0  0  0  0  0  0  0  0  0
    6.1998    6.7654  -12.0053 H   0  0  0  0  0  0  0  0  0  0  0  0
    6.1573    7.4874  -10.3776 H   0  0  0  0  0  0  0  0  0  0  0  0
  1  2  1  0  0  0  0
  2  3  1  0  0  0  0
  2  4  1  0  0  0  0
  2  5  1  0  0  0  0
  5  6  2  0  0  0  0
  5  7  1  0  0  0  0
  6  8  1  0  0  0  0
  6 25  1  0  0  0  0
  7  9  2  0  0  0  0
  7 26  1  0  0  0  0
  8 10  2  0  0  0  0
  8 27  1  0  0  0  0
  9 10  1  0  0  0  0
  9 28  1  0  0  0  0
 10 11  1  0  0  0  0
 11 12  1  0  0  0  0
 11 29  1  0  0  0  0
 12 13  1  0  0  0  0
 12 14  2  0  0  0  0
 13 15  1  0  0  0  0
 13 16  1  0  0  0  0
 14 17  1  0  0  0  0
 14 30  1  0  0  0  0
 15 18  2  0  0  0  0
 16 19  1  0  0  0  0
 16 20  2  0  0  0  0
 17 21  1  0  0  0  0
 17 19  2  0  0  0  0
 18 22  1  0  0  0  0
 18 20  1  0  0  0  0
 21 31  1  0  0  0  0
 21 32  1  0  0  0  0
 21 33  1  0  0  0  0
 22 23  1  0  0  0  0
 23 24  1  0  0  0  0
 23 34  1  0  0  0  0
 23 35  1  0  0  0  0
 24 36  1  0  0  0  0
 24 37  1  0  0  0  0
 24 38  1  0  0  0  0
M  END
>  <Molecule Name>
1281993

>  <MolRegNo>
1281993

>  <m>
=

>  <Value>
56

>  <Unit>
nM

>  <Type>
IC50

>  <pIC50>
7.25

>  <Ligand Efficiency>
0.41

>  <Binding Efficiency>
21.5

>  <Surface Efficiency>
11.27

>  <Assay Index>
642520

>  <Assay Category>


>  <Assay Organism>
Plasmodium falciparum

>  <Target ID>
100588

>  <Target Name>
Dihydroorotate dehydrogenase

>  <Target Organism>
Plasmodium falciparum

>  <Target Description>
Target is a single protein chain

>  <Sequence Accession>
Q54A96

>  <Reference>
J. Med. Chem. 54 (15), 5540-5561 (2011)

>  <Pubmed ID>
21696174

>  <DOI>
10.1021/jm200592f

$$$$
Compound 6
 OpenBabel11072204193D

 35 37  0  0  0  0  0  0  0  0999 V2000
    3.3383    1.0740    3.9455 Cl  0  0  0  0  0  0  0  0  0  0  0  0
    4.3136    0.7201    2.5749 C   0  0  0  0  0  0  0  0  0  0  0  0
    4.8081   -0.5641    2.3960 C   0  0  0  0  0  0  0  0  0  0  0  0
    4.6197    1.7179    1.6533 C   0  0  0  0  0  0  0  0  0  0  0  0
    5.6518   -0.8363    1.3146 C   0  0  0  0  0  0  0  0  0  0  0  0
    5.4584    1.4362    0.5649 C   0  0  0  0  0  0  0  0  0  0  0  0
    6.0307    0.1652    0.4034 C   0  0  0  0  0  0  0  0  0  0  0  0
    6.9139   -0.0600   -0.6944 N   0  0  0  0  0  0  0  0  0  0  0  0
    7.6109   -1.2584   -0.8854 C   0  0  0  0  0  0  0  0  0  0  0  0
    9.0295   -1.2422   -0.9242 N   0  0  0  0  0  0  0  0  0  0  0  0
    7.0001   -2.4473   -1.0360 C   0  0  0  0  0  0  0  0  0  0  0  0
    9.8872   -0.1828   -0.9044 N   0  0  0  0  0  0  0  0  0  0  0  0
    9.7615   -2.4385   -0.9934 C   0  0  0  0  0  0  0  0  0  0  0  0
    7.8611   -3.6610   -0.9873 C   0  0  0  0  0  0  0  0  0  0  0  0
   11.0708   -0.7974   -0.9612 C   0  0  0  0  0  0  0  0  0  0  0  0
    9.1581   -3.6580   -0.9873 N   0  0  0  0  0  0  0  0  0  0  0  0
   11.0446   -2.1555   -1.0023 N   0  0  0  0  0  0  0  0  0  0  0  0
    7.1482   -4.9828   -0.8599 C   0  0  0  0  0  0  0  0  0  0  0  0
   12.1648   -0.0060   -0.9836 O   0  0  0  0  0  0  0  0  0  0  0  0
   13.3577   -0.7503   -0.7280 C   0  0  0  0  0  0  0  0  0  0  0  0
   14.5645    0.1340   -0.9920 C   0  0  0  0  0  0  0  0  0  0  0  0
    4.5600   -1.3577    3.0967 H   0  0  0  0  0  0  0  0  0  0  0  0
    4.2166    2.7196    1.7796 H   0  0  0  0  0  0  0  0  0  0  0  0
    6.0276   -1.8506    1.2397 H   0  0  0  0  0  0  0  0  0  0  0  0
    5.6731    2.2291   -0.1478 H   0  0  0  0  0  0  0  0  0  0  0  0
    7.5265    0.7533   -0.8240 H   0  0  0  0  0  0  0  0  0  0  0  0
    5.9257   -2.5531   -1.0837 H   0  0  0  0  0  0  0  0  0  0  0  0
    6.0724   -4.8422   -0.7204 H   0  0  0  0  0  0  0  0  0  0  0  0
    7.5387   -5.5144    0.0136 H   0  0  0  0  0  0  0  0  0  0  0  0
    7.3203   -5.5814   -1.7567 H   0  0  0  0  0  0  0  0  0  0  0  0
   13.4333   -1.6354   -1.3743 H   0  0  0  0  0  0  0  0  0  0  0  0
   13.3648   -1.0686    0.3215 H   0  0  0  0  0  0  0  0  0  0  0  0
   14.6230    0.3973   -2.0535 H   0  0  0  0  0  0  0  0  0  0  0  0
   15.4904   -0.3799   -0.7137 H   0  0  0  0  0  0  0  0  0  0  0  0
   14.4967    1.0702   -0.4301 H   0  0  0  0  0  0  0  0  0  0  0  0
  1  2  1  0  0  0  0
  2  3  2  0  0  0  0
  2  4  1  0  0  0  0
  3  5  1  0  0  0  0
  3 22  1  0  0  0  0
  4  6  2  0  0  0  0
  4 23  1  0  0  0  0
  5  7  2  0  0  0  0
  5 24  1  0  0  0  0
  6  7  1  0  0  0  0
  6 25  1  0  0  0  0
  7  8  1  0  0  0  0
  8  9  1  0  0  0  0
  8 26  1  0  0  0  0
  9 10  1  0  0  0  0
  9 11  2  0  0  0  0
 10 12  1  0  0  0  0
 10 13  1  0  0  0  0
 11 14  1  0  0  0  0
 11 27  1  0  0  0  0
 12 15  2  0  0  0  0
 13 16  1  0  0  0  0
 13 17  2  0  0  0  0
 14 18  1  0  0  0  0
 14 16  2  0  0  0  0
 15 19  1  0  0  0  0
 15 17  1  0  0  0  0
 18 28  1  0  0  0  0
 18 29  1  0  0  0  0
 18 30  1  0  0  0  0
 19 20  1  0  0  0  0
 20 21  1  0  0  0  0
 20 31  1  0  0  0  0
 20 32  1  0  0  0  0
 21 33  1  0  0  0  0
 21 34  1  0  0  0  0
 21 35  1  0  0  0  0
M  END
>  <Molecule Name>
1281992

>  <MolRegNo>
1281992

>  <m>
=

>  <Value>
270

>  <Unit>
nM

>  <Type>
IC50

>  <pIC50>
6.57

>  <Ligand Efficiency>
0.43

>  <Binding Efficiency>
21.63

>  <Surface Efficiency>
10.21

>  <Assay Index>
642520

>  <Assay Category>


>  <Assay Organism>
Plasmodium falciparum

>  <Target ID>
100588

>  <Target Name>
Dihydroorotate dehydrogenase

>  <Target Organism>
Plasmodium falciparum

>  <Target Description>
Target is a single protein chain

>  <Sequence Accession>
Q54A96

>  <Reference>
J. Med. Chem. 54 (15), 5540-5561 (2011)

>  <Pubmed ID>
21696174

>  <DOI>
10.1021/jm200592f

$$$$
Compound 7
 OpenBabel11072204193D

 35 37  0  0  0  0  0  0  0  0999 V2000
    9.7880    2.8418   -2.6487 Cl  0  0  0  0  0  0  0  0  0  0  0  0
    8.5689    1.9172   -1.8565 C   0  0  0  0  0  0  0  0  0  0  0  0
    7.3251    2.5004   -1.5856 C   0  0  0  0  0  0  0  0  0  0  0  0
    8.8364    0.6053   -1.4844 C   0  0  0  0  0  0  0  0  0  0  0  0
    6.3254    1.7959   -0.9020 C   0  0  0  0  0  0  0  0  0  0  0  0
    7.8475   -0.1270   -0.8360 C   0  0  0  0  0  0  0  0  0  0  0  0
    5.0944    2.3514   -0.4877 N   0  0  0  0  0  0  0  0  0  0  0  0
    6.6134    0.4676   -0.5401 C   0  0  0  0  0  0  0  0  0  0  0  0
    4.6353    3.6677   -0.4512 C   0  0  0  0  0  0  0  0  0  0  0  0
    3.2269    3.8652   -0.3723 N   0  0  0  0  0  0  0  0  0  0  0  0
    5.3989    4.7767   -0.4207 C   0  0  0  0  0  0  0  0  0  0  0  0
    2.2241    2.9389   -0.3101 N   0  0  0  0  0  0  0  0  0  0  0  0
    2.6678    5.1524   -0.3276 C   0  0  0  0  0  0  0  0  0  0  0  0
    4.7128    6.1032   -0.4187 C   0  0  0  0  0  0  0  0  0  0  0  0
    1.1418    3.7187   -0.2578 C   0  0  0  0  0  0  0  0  0  0  0  0
    3.4293    6.2797   -0.3677 N   0  0  0  0  0  0  0  0  0  0  0  0
    1.3621    5.0582   -0.2652 N   0  0  0  0  0  0  0  0  0  0  0  0
    5.5880    7.3283   -0.5014 C   0  0  0  0  0  0  0  0  0  0  0  0
   -0.0581    3.1029   -0.2072 O   0  0  0  0  0  0  0  0  0  0  0  0
   -1.1219    4.0435   -0.3773 C   0  0  0  0  0  0  0  0  0  0  0  0
   -2.4555    3.3414   -0.1934 C   0  0  0  0  0  0  0  0  0  0  0  0
    7.1538    3.5056   -1.9504 H   0  0  0  0  0  0  0  0  0  0  0  0
    9.8007    0.1521   -1.6980 H   0  0  0  0  0  0  0  0  0  0  0  0
    8.0373   -1.1588   -0.5496 H   0  0  0  0  0  0  0  0  0  0  0  0
    4.3542    1.6660   -0.3183 H   0  0  0  0  0  0  0  0  0  0  0  0
    5.8700   -0.1264   -0.0119 H   0  0  0  0  0  0  0  0  0  0  0  0
    6.4777    4.7699   -0.3855 H   0  0  0  0  0  0  0  0  0  0  0  0
    6.6417    7.0642   -0.6209 H   0  0  0  0  0  0  0  0  0  0  0  0
    5.4688    7.9187    0.4108 H   0  0  0  0  0  0  0  0  0  0  0  0
    5.2797    7.9309   -1.3610 H   0  0  0  0  0  0  0  0  0  0  0  0
   -1.0788    4.4694   -1.3887 H   0  0  0  0  0  0  0  0  0  0  0  0
   -1.0549    4.8549    0.3598 H   0  0  0  0  0  0  0  0  0  0  0  0
   -2.5615    2.5112   -0.8985 H   0  0  0  0  0  0  0  0  0  0  0  0
   -3.2812    4.0382   -0.3470 H   0  0  0  0  0  0  0  0  0  0  0  0
   -2.5366    2.9250    0.8156 H   0  0  0  0  0  0  0  0  0  0  0  0
  1  2  1  0  0  0  0
  2  3  2  0  0  0  0
  2  4  1  0  0  0  0
  3  5  1  0  0  0  0
  3 22  1  0  0  0  0
  4  6  2  0  0  0  0
  4 23  1  0  0  0  0
  5  7  1  0  0  0  0
  5  8  2  0  0  0  0
  6  8  1  0  0  0  0
  6 24  1  0  0  0  0
  7  9  1  0  0  0  0
  7 25  1  0  0  0  0
  8 26  1  0  0  0  0
  9 10  1  0  0  0  0
  9 11  2  0  0  0  0
 10 12  1  0  0  0  0
 10 13  1  0  0  0  0
 11 14  1  0  0  0  0
 11 27  1  0  0  0  0
 12 15  2  0  0  0  0
 13 16  1  0  0  0  0
 13 17  2  0  0  0  0
 14 18  1  0  0  0  0
 14 16  2  0  0  0  0
 15 19  1  0  0  0  0
 15 17  1  0  0  0  0
 18 28  1  0  0  0  0
 18 29  1  0  0  0  0
 18 30  1  0  0  0  0
 19 20  1  0  0  0  0
 20 21  1  0  0  0  0
 20 31  1  0  0  0  0
 20 32  1  0  0  0  0
 21 33  1  0  0  0  0
 21 34  1  0  0  0  0
 21 35  1  0  0  0  0
M  END
>  <Molecule Name>
1281991

>  <MolRegNo>
1281991

>  <m>
=

>  <Value>
400

>  <Unit>
nM

>  <Type>
IC50

>  <pIC50>
6.4

>  <Ligand Efficiency>
0.42

>  <Binding Efficiency>
21.06

>  <Surface Efficiency>
9.94

>  <Assay Index>
642520

>  <Assay Category>


>  <Assay Organism>
Plasmodium falciparum

>  <Target ID>
100588

>  <Target Name>
Dihydroorotate dehydrogenase

>  <Target Organism>
Plasmodium falciparum

>  <Target Description>
Target is a single protein chain

>  <Sequence Accession>
Q54A96

>  <Reference>
J. Med. Chem. 54 (15), 5540-5561 (2011)

>  <Pubmed ID>
21696174

>  <DOI>
10.1021/jm200592f

$$$$
Compound 8
 OpenBabel11072204193D

 32 34  0  0  0  0  0  0  0  0999 V2000
    3.2970    1.0515    3.9063 Cl  0  0  0  0  0  0  0  0  0  0  0  0
    4.2915    0.6986    2.5484 C   0  0  0  0  0  0  0  0  0  0  0  0
    4.7830   -0.5879    2.3745 C   0  0  0  0  0  0  0  0  0  0  0  0
    4.6133    1.6958    1.6348 C   0  0  0  0  0  0  0  0  0  0  0  0
    5.6385   -0.8613    1.3031 C   0  0  0  0  0  0  0  0  0  0  0  0
    5.4649    1.4140    0.5561 C   0  0  0  0  0  0  0  0  0  0  0  0
    6.0319    0.1403    0.3981 C   0  0  0  0  0  0  0  0  0  0  0  0
    6.9250   -0.0876   -0.6898 N   0  0  0  0  0  0  0  0  0  0  0  0
    7.6111   -1.2919   -0.8831 C   0  0  0  0  0  0  0  0  0  0  0  0
    9.0254   -1.2860   -0.9345 N   0  0  0  0  0  0  0  0  0  0  0  0
    6.9930   -2.4759   -1.0405 C   0  0  0  0  0  0  0  0  0  0  0  0
    9.8934   -0.2344   -0.9139 N   0  0  0  0  0  0  0  0  0  0  0  0
    9.7483   -2.4792   -1.0392 C   0  0  0  0  0  0  0  0  0  0  0  0
    7.8433   -3.6970   -1.0045 C   0  0  0  0  0  0  0  0  0  0  0  0
   11.0682   -0.8577   -1.0413 C   0  0  0  0  0  0  0  0  0  0  0  0
    9.1426   -3.7009   -1.0210 N   0  0  0  0  0  0  0  0  0  0  0  0
   11.0297   -2.2143   -1.1080 N   0  0  0  0  0  0  0  0  0  0  0  0
    7.1339   -5.0158   -0.8658 C   0  0  0  0  0  0  0  0  0  0  0  0
   12.1649   -0.0806   -1.1071 O   0  0  0  0  0  0  0  0  0  0  0  0
   13.3351   -0.8654   -1.3144 C   0  0  0  0  0  0  0  0  0  0  0  0
    4.5242   -1.3813    3.0704 H   0  0  0  0  0  0  0  0  0  0  0  0
    4.2136    2.6990    1.7588 H   0  0  0  0  0  0  0  0  0  0  0  0
    6.0134   -1.8761    1.2317 H   0  0  0  0  0  0  0  0  0  0  0  0
    5.6929    2.2085   -0.1508 H   0  0  0  0  0  0  0  0  0  0  0  0
    7.5463    0.7200   -0.8091 H   0  0  0  0  0  0  0  0  0  0  0  0
    5.9155   -2.5777   -1.0849 H   0  0  0  0  0  0  0  0  0  0  0  0
    6.0587   -4.8768   -0.7247 H   0  0  0  0  0  0  0  0  0  0  0  0
    7.5298   -5.5442    0.0059 H   0  0  0  0  0  0  0  0  0  0  0  0
    7.3065   -5.6165   -1.7612 H   0  0  0  0  0  0  0  0  0  0  0  0
   14.1951   -0.1952   -1.3926 H   0  0  0  0  0  0  0  0  0  0  0  0
   13.2708   -1.4360   -2.2499 H   0  0  0  0  0  0  0  0  0  0  0  0
   13.5157   -1.5439   -0.4678 H   0  0  0  0  0  0  0  0  0  0  0  0
  1  2  1  0  0  0  0
  2  3  2  0  0  0  0
  2  4  1  0  0  0  0
  3  5  1  0  0  0  0
  3 21  1  0  0  0  0
  4  6  2  0  0  0  0
  4 22  1  0  0  0  0
  5  7  2  0  0  0  0
  5 23  1  0  0  0  0
  6  7  1  0  0  0  0
  6 24  1  0  0  0  0
  7  8  1  0  0  0  0
  8  9  1  0  0  0  0
  8 25  1  0  0  0  0
  9 10  1  0  0  0  0
  9 11  2  0  0  0  0
 10 12  1  0  0  0  0
 10 13  1  0  0  0  0
 11 14  1  0  0  0  0
 11 26  1  0  0  0  0
 12 15  2  0  0  0  0
 13 16  1  0  0  0  0
 13 17  2  0  0  0  0
 14 18  1  0  0  0  0
 14 16  2  0  0  0  0
 15 19  1  0  0  0  0
 15 17  1  0  0  0  0
 18 27  1  0  0  0  0
 18 28  1  0  0  0  0
 18 29  1  0  0  0  0
 19 20  1  0  0  0  0
 20 30  1  0  0  0  0
 20 31  1  0  0  0  0
 20 32  1  0  0  0  0
M  END
>  <Molecule Name>
1281990

>  <MolRegNo>
1281990

>  <m>
=

>  <Value>
460

>  <Unit>
nM

>  <Type>
IC50

>  <pIC50>
6.34

>  <Ligand Efficiency>
0.43

>  <Binding Efficiency>
21.87

>  <Surface Efficiency>
9.85

>  <Assay Index>
642520

>  <Assay Category>


>  <Assay Organism>
Plasmodium falciparum

>  <Target ID>
100588

>  <Target Name>
Dihydroorotate dehydrogenase

>  <Target Organism>
Plasmodium falciparum

>  <Target Description>
Target is a single protein chain

>  <Sequence Accession>
Q54A96

>  <Reference>
J. Med. Chem. 54 (15), 5540-5561 (2011)

>  <Pubmed ID>
21696174

>  <DOI>
10.1021/jm200592f

$$$$
Compound 9
 OpenBabel11072204193D

 32 34  0  0  0  0  0  0  0  0999 V2000
    9.2078    2.5233   -3.6144 Cl  0  0  0  0  0  0  0  0  0  0  0  0
    8.3374    1.8668   -2.2812 C   0  0  0  0  0  0  0  0  0  0  0  0
    7.0666    2.3591   -1.9754 C   0  0  0  0  0  0  0  0  0  0  0  0
    8.9087    0.8547   -1.5171 C   0  0  0  0  0  0  0  0  0  0  0  0
    6.3350    1.8358   -0.9008 C   0  0  0  0  0  0  0  0  0  0  0  0
    8.1969    0.3234   -0.4441 C   0  0  0  0  0  0  0  0  0  0  0  0
    5.0852    2.3503   -0.5121 N   0  0  0  0  0  0  0  0  0  0  0  0
    6.9193    0.8097   -0.1436 C   0  0  0  0  0  0  0  0  0  0  0  0
    4.6400    3.6702   -0.5049 C   0  0  0  0  0  0  0  0  0  0  0  0
    3.2447    3.8942   -0.3893 N   0  0  0  0  0  0  0  0  0  0  0  0
    5.4345    4.7571   -0.5276 C   0  0  0  0  0  0  0  0  0  0  0  0
    2.2304    2.9883   -0.3147 N   0  0  0  0  0  0  0  0  0  0  0  0
    2.7154    5.1903   -0.3131 C   0  0  0  0  0  0  0  0  0  0  0  0
    4.7794    6.0989   -0.4584 C   0  0  0  0  0  0  0  0  0  0  0  0
    1.1687    3.7851   -0.2017 C   0  0  0  0  0  0  0  0  0  0  0  0
    3.5011    6.3009   -0.3566 N   0  0  0  0  0  0  0  0  0  0  0  0
    1.4113    5.1214   -0.1865 N   0  0  0  0  0  0  0  0  0  0  0  0
    5.6751    7.3131   -0.5049 C   0  0  0  0  0  0  0  0  0  0  0  0
   -0.0306    3.1820   -0.1030 O   0  0  0  0  0  0  0  0  0  0  0  0
   -1.0557    4.1224    0.2038 C   0  0  0  0  0  0  0  0  0  0  0  0
    6.6343    3.1326   -2.6026 H   0  0  0  0  0  0  0  0  0  0  0  0
    9.9021    0.4795   -1.7488 H   0  0  0  0  0  0  0  0  0  0  0  0
    8.6376   -0.4635    0.1632 H   0  0  0  0  0  0  0  0  0  0  0  0
    4.3971    1.6693   -0.1865 H   0  0  0  0  0  0  0  0  0  0  0  0
    6.3907    0.3935    0.7115 H   0  0  0  0  0  0  0  0  0  0  0  0
    6.5153    4.7120   -0.5562 H   0  0  0  0  0  0  0  0  0  0  0  0
    6.7266    7.0357   -0.5956 H   0  0  0  0  0  0  0  0  0  0  0  0
    5.5359    7.8921    0.4127 H   0  0  0  0  0  0  0  0  0  0  0  0
    5.3918    7.9309   -1.3619 H   0  0  0  0  0  0  0  0  0  0  0  0
   -2.0133    3.5934    0.2202 H   0  0  0  0  0  0  0  0  0  0  0  0
   -1.1258    4.9128   -0.5534 H   0  0  0  0  0  0  0  0  0  0  0  0
   -0.8956    4.5585    1.1971 H   0  0  0  0  0  0  0  0  0  0  0  0
  1  2  1  0  0  0  0
  2  3  2  0  0  0  0
  2  4  1  0  0  0  0
  3  5  1  0  0  0  0
  3 21  1  0  0  0  0
  4  6  2  0  0  0  0
  4 22  1  0  0  0  0
  5  7  1  0  0  0  0
  5  8  2  0  0  0  0
  6  8  1  0  0  0  0
  6 23  1  0  0  0  0
  7  9  1  0  0  0  0
  7 24  1  0  0  0  0
  8 25  1  0  0  0  0
  9 10  1  0  0  0  0
  9 11  2  0  0  0  0
 10 12  1  0  0  0  0
 10 13  1  0  0  0  0
 11 14  1  0  0  0  0
 11 26  1  0  0  0  0
 12 15  2  0  0  0  0
 13 16  1  0  0  0  0
 13 17  2  0  0  0  0
 14 18  1  0  0  0  0
 14 16  2  0  0  0  0
 15 19  1  0  0  0  0
 15 17  1  0  0  0  0
 18 27  1  0  0  0  0
 18 28  1  0  0  0  0
 18 29  1  0  0  0  0
 19 20  1  0  0  0  0
 20 30  1  0  0  0  0
 20 31  1  0  0  0  0
 20 32  1  0  0  0  0
M  END
>  <Molecule Name>
1281989

>  <MolRegNo>
1281989

>  <m>
=

>  <Value>
500

>  <Unit>
nM

>  <Type>
IC50

>  <pIC50>
6.3

>  <Ligand Efficiency>
0.43

>  <Binding Efficiency>
21.75

>  <Surface Efficiency>
9.79

>  <Assay Index>
642520

>  <Assay Category>


>  <Assay Organism>
Plasmodium falciparum

>  <Target ID>
100588

>  <Target Name>
Dihydroorotate dehydrogenase

>  <Target Organism>
Plasmodium falciparum

>  <Target Description>
Target is a single protein chain

>  <Sequence Accession>
Q54A96

>  <Reference>
J. Med. Chem. 54 (15), 5540-5561 (2011)

>  <Pubmed ID>
21696174

>  <DOI>
10.1021/jm200592f

$$$$
Compound 10
 OpenBabel11072204193D

 37 39  0  0  0  0  0  0  0  0999 V2000
    0.7951   -0.0049   -0.2051 S   0  0  0  0  0  0  0  0  0  0  0  0
   -0.4683    0.4049    0.3738 O   0  0  0  0  0  0  0  0  0  0  0  0
    1.7593    0.9385   -0.7315 O   0  0  0  0  0  0  0  0  0  0  0  0
    0.3764   -1.0447   -1.5596 C   0  0  0  0  0  0  0  0  0  0  0  0
    1.6188   -1.1100    0.9220 C   0  0  0  0  0  0  0  0  0  0  0  0
   -0.2434   -0.6315   -2.6832 N   0  0  0  0  0  0  0  0  0  0  0  0
    0.7059   -2.3774   -1.5319 N   0  0  0  0  0  0  0  0  0  0  0  0
   -0.2699   -1.7692   -3.4308 N   0  0  0  0  0  0  0  0  0  0  0  0
    0.3006   -2.8232   -2.6958 C   0  0  0  0  0  0  0  0  0  0  0  0
   -0.7307   -1.9720   -4.7535 C   0  0  0  0  0  0  0  0  0  0  0  0
    0.3735   -4.0954   -3.1754 N   0  0  0  0  0  0  0  0  0  0  0  0
   -1.3393   -0.9227   -5.4444 N   0  0  0  0  0  0  0  0  0  0  0  0
   -0.5074   -3.1856   -5.2952 C   0  0  0  0  0  0  0  0  0  0  0  0
   -0.0176   -4.2673   -4.4004 C   0  0  0  0  0  0  0  0  0  0  0  0
   -2.1895   -1.0598   -6.5630 C   0  0  0  0  0  0  0  0  0  0  0  0
   -0.0625   -5.6577   -4.9747 C   0  0  0  0  0  0  0  0  0  0  0  0
   -3.0097   -2.1899   -6.7210 C   0  0  0  0  0  0  0  0  0  0  0  0
   -2.1059   -0.1615   -7.6297 C   0  0  0  0  0  0  0  0  0  0  0  0
   -3.6215   -2.4883   -7.9386 C   0  0  0  0  0  0  0  0  0  0  0  0
   -2.7331   -0.4470   -8.8537 C   0  0  0  0  0  0  0  0  0  0  0  0
   -3.4551   -1.6384   -9.0342 C   0  0  0  0  0  0  0  0  0  0  0  0
   -4.0031   -2.0166  -10.3888 C   0  0  0  0  0  0  0  0  0  0  0  0
   -4.5867   -3.2487  -10.4119 F   0  0  0  0  0  0  0  0  0  0  0  0
   -4.9449   -1.1469  -10.8425 F   0  0  0  0  0  0  0  0  0  0  0  0
   -3.0324   -2.0551  -11.3453 F   0  0  0  0  0  0  0  0  0  0  0  0
    1.9261   -0.5364    1.7983 H   0  0  0  0  0  0  0  0  0  0  0  0
    2.4997   -1.5338    0.4350 H   0  0  0  0  0  0  0  0  0  0  0  0
    0.9265   -1.8987    1.2256 H   0  0  0  0  0  0  0  0  0  0  0  0
   -1.2167    0.0110   -5.0536 H   0  0  0  0  0  0  0  0  0  0  0  0
   -0.7192   -3.4376   -6.3235 H   0  0  0  0  0  0  0  0  0  0  0  0
    0.3380   -6.3845   -4.2648 H   0  0  0  0  0  0  0  0  0  0  0  0
    0.5165   -5.6971   -5.9021 H   0  0  0  0  0  0  0  0  0  0  0  0
   -1.1049   -5.9158   -5.1945 H   0  0  0  0  0  0  0  0  0  0  0  0
   -3.1523   -2.8816   -5.8935 H   0  0  0  0  0  0  0  0  0  0  0  0
   -1.4971    0.7360   -7.5466 H   0  0  0  0  0  0  0  0  0  0  0  0
   -4.1951   -3.4095   -8.0309 H   0  0  0  0  0  0  0  0  0  0  0  0
   -2.6147    0.2455   -9.6867 H   0  0  0  0  0  0  0  0  0  0  0  0
  1  2  2  0  0  0  0
  1  3  2  0  0  0  0
  1  4  1  0  0  0  0
  1  5  1  0  0  0  0
  4  6  2  0  0  0  0
  4  7  1  0  0  0  0
  5 26  1  0  0  0  0
  5 27  1  0  0  0  0
  5 28  1  0  0  0  0
  6  8  1  0  0  0  0
  7  9  2  0  0  0  0
  8 10  1  0  0  0  0
  8  9  1  0  0  0  0
  9 11  1  0  0  0  0
 10 12  1  0  0  0  0
 10 13  2  0  0  0  0
 11 14  2  0  0  0  0
 12 15  1  0  0  0  0
 12 29  1  0  0  0  0
 13 14  1  0  0  0  0
 13 30  1  0  0  0  0
 14 16  1  0  0  0  0
 15 17  2  0  0  0  0
 15 18  1  0  0  0  0
 16 31  1  0  0  0  0
 16 32  1  0  0  0  0
 16 33  1  0  0  0  0
 17 19  1  0  0  0  0
 17 34  1  0  0  0  0
 18 20  2  0  0  0  0
 18 35  1  0  0  0  0
 19 21  2  0  0  0  0
 19 36  1  0  0  0  0
 20 21  1  0  0  0  0
 20 37  1  0  0  0  0
 21 22  1  0  0  0  0
 22 23  1  0  0  0  0
 22 24  1  0  0  0  0
 22 25  1  0  0  0  0
M  END
>  <Molecule Name>
1281987

>  <MolRegNo>
1281987

>  <m>
=

>  <Value>
90

>  <Unit>
nM

>  <Type>
IC50

>  <pIC50>
7.05

>  <Ligand Efficiency>
0.38

>  <Binding Efficiency>
18.97

>  <Surface Efficiency>
7.89

>  <Assay Index>
642520

>  <Assay Category>


>  <Assay Organism>
Plasmodium falciparum

>  <Target ID>
100588

>  <Target Name>
Dihydroorotate dehydrogenase

>  <Target Organism>
Plasmodium falciparum

>  <Target Description>
Target is a single protein chain

>  <Sequence Accession>
Q54A96

>  <Reference>
J. Med. Chem. 54 (15), 5540-5561 (2011)

>  <Pubmed ID>
21696174

>  <DOI>
10.1021/jm200592f

$$$$
Compound 11
 OpenBabel11072204193D

 34 36  0  0  0  0  0  0  0  0999 V2000
    9.9235    2.9537   -2.6831 Cl  0  0  0  0  0  0  0  0  0  0  0  0
    8.7173    2.0184   -1.8843 C   0  0  0  0  0  0  0  0  0  0  0  0
    7.4660    2.5873   -1.6184 C   0  0  0  0  0  0  0  0  0  0  0  0
    9.0010    0.7129   -1.5023 C   0  0  0  0  0  0  0  0  0  0  0  0
    6.4756    1.8742   -0.9322 C   0  0  0  0  0  0  0  0  0  0  0  0
    8.0205   -0.0291   -0.8517 C   0  0  0  0  0  0  0  0  0  0  0  0
    5.2376    2.4168   -0.5260 N   0  0  0  0  0  0  0  0  0  0  0  0
    6.7774    0.5519   -0.5622 C   0  0  0  0  0  0  0  0  0  0  0  0
    4.7677    3.7273   -0.4792 C   0  0  0  0  0  0  0  0  0  0  0  0
    3.3593    3.9017   -0.3692 N   0  0  0  0  0  0  0  0  0  0  0  0
    5.5136    4.8475   -0.4549 C   0  0  0  0  0  0  0  0  0  0  0  0
    2.3842    2.9536   -0.2823 N   0  0  0  0  0  0  0  0  0  0  0  0
    2.7787    5.1750   -0.2867 C   0  0  0  0  0  0  0  0  0  0  0  0
    4.8055    6.1615   -0.4272 C   0  0  0  0  0  0  0  0  0  0  0  0
    1.2733    3.7020   -0.1293 C   0  0  0  0  0  0  0  0  0  0  0  0
    3.5191    6.3145   -0.3443 N   0  0  0  0  0  0  0  0  0  0  0  0
    1.4805    5.0592   -0.1362 N   0  0  0  0  0  0  0  0  0  0  0  0
    5.6589    7.4018   -0.5095 C   0  0  0  0  0  0  0  0  0  0  0  0
   -0.3418    3.0484    0.1095 S   0  0  0  0  0  0  0  0  0  0  0  0
   -0.7617    2.5674   -1.1918 O   0  0  0  0  0  0  0  0  0  0  0  0
   -0.2365    2.1771    1.2672 O   0  0  0  0  0  0  0  0  0  0  0  0
   -1.3188    4.4657    0.5470 C   0  0  0  0  0  0  0  0  0  0  0  0
    7.2807    3.5870   -1.9906 H   0  0  0  0  0  0  0  0  0  0  0  0
    9.9725    0.2720   -1.7104 H   0  0  0  0  0  0  0  0  0  0  0  0
    8.2233   -1.0565   -0.5590 H   0  0  0  0  0  0  0  0  0  0  0  0
    4.5101    1.7207   -0.3396 H   0  0  0  0  0  0  0  0  0  0  0  0
    6.0412   -0.0497   -0.0325 H   0  0  0  0  0  0  0  0  0  0  0  0
    6.5928    4.8576   -0.4320 H   0  0  0  0  0  0  0  0  0  0  0  0
    6.7157    7.1547   -0.6386 H   0  0  0  0  0  0  0  0  0  0  0  0
    5.5385    7.9826    0.4090 H   0  0  0  0  0  0  0  0  0  0  0  0
    5.3335    8.0061   -1.3614 H   0  0  0  0  0  0  0  0  0  0  0  0
   -1.3595    5.1552   -0.2968 H   0  0  0  0  0  0  0  0  0  0  0  0
   -0.8845    4.9472    1.4263 H   0  0  0  0  0  0  0  0  0  0  0  0
   -2.3282    4.1197    0.7870 H   0  0  0  0  0  0  0  0  0  0  0  0
  1  2  1  0  0  0  0
  2  3  2  0  0  0  0
  2  4  1  0  0  0  0
  3  5  1  0  0  0  0
  3 23  1  0  0  0  0
  4  6  2  0  0  0  0
  4 24  1  0  0  0  0
  5  7  1  0  0  0  0
  5  8  2  0  0  0  0
  6  8  1  0  0  0  0
  6 25  1  0  0  0  0
  7  9  1  0  0  0  0
  7 26  1  0  0  0  0
  8 27  1  0  0  0  0
  9 10  1  0  0  0  0
  9 11  2  0  0  0  0
 10 12  1  0  0  0  0
 10 13  1  0  0  0  0
 11 14  1  0  0  0  0
 11 28  1  0  0  0  0
 12 15  2  0  0  0  0
 13 16  1  0  0  0  0
 13 17  2  0  0  0  0
 14 18  1  0  0  0  0
 14 16  2  0  0  0  0
 15 19  1  0  0  0  0
 15 17  1  0  0  0  0
 18 29  1  0  0  0  0
 18 30  1  0  0  0  0
 18 31  1  0  0  0  0
 19 20  2  0  0  0  0
 19 21  2  0  0  0  0
 19 22  1  0  0  0  0
 22 32  1  0  0  0  0
 22 33  1  0  0  0  0
 22 34  1  0  0  0  0
M  END
>  <Molecule Name>
1281825

>  <MolRegNo>
1281825

>  <m>
=

>  <Value>
160

>  <Unit>
nM

>  <Type>
IC50

>  <pIC50>
6.8

>  <Ligand Efficiency>
0.42

>  <Binding Efficiency>
20.12

>  <Surface Efficiency>
7.61

>  <Assay Index>
642520

>  <Assay Category>


>  <Assay Organism>
Plasmodium falciparum

>  <Target ID>
100588

>  <Target Name>
Dihydroorotate dehydrogenase

>  <Target Organism>
Plasmodium falciparum

>  <Target Description>
Target is a single protein chain

>  <Sequence Accession>
Q54A96

>  <Reference>
J. Med. Chem. 54 (15), 5540-5561 (2011)

>  <Pubmed ID>
21696174

>  <DOI>
10.1021/jm200592f

$$$$
Compound 12
 OpenBabel11072204193D

 34 36  0  0  0  0  0  0  0  0999 V2000
    3.4410    1.1217    3.9556 Cl  0  0  0  0  0  0  0  0  0  0  0  0
    4.4114    0.7625    2.5835 C   0  0  0  0  0  0  0  0  0  0  0  0
    4.8953   -0.5260    2.4014 C   0  0  0  0  0  0  0  0  0  0  0  0
    4.7220    1.7581    1.6618 C   0  0  0  0  0  0  0  0  0  0  0  0
    5.7312   -0.8066    1.3159 C   0  0  0  0  0  0  0  0  0  0  0  0
    5.5536    1.4690    0.5704 C   0  0  0  0  0  0  0  0  0  0  0  0
    6.1128    0.1927    0.4044 C   0  0  0  0  0  0  0  0  0  0  0  0
    6.9837   -0.0389   -0.7010 N   0  0  0  0  0  0  0  0  0  0  0  0
    7.6873   -1.2356   -0.8902 C   0  0  0  0  0  0  0  0  0  0  0  0
    9.0975   -1.2036   -0.9587 N   0  0  0  0  0  0  0  0  0  0  0  0
    7.0835   -2.4292   -1.0355 C   0  0  0  0  0  0  0  0  0  0  0  0
    9.9416   -0.1332   -0.9570 N   0  0  0  0  0  0  0  0  0  0  0  0
    9.8404   -2.3869   -1.0613 C   0  0  0  0  0  0  0  0  0  0  0  0
    7.9595   -3.6340   -1.0062 C   0  0  0  0  0  0  0  0  0  0  0  0
   11.1461   -0.7233   -1.1006 C   0  0  0  0  0  0  0  0  0  0  0  0
    9.2570   -3.6145   -1.0349 N   0  0  0  0  0  0  0  0  0  0  0  0
   11.1196   -2.0977   -1.1515 N   0  0  0  0  0  0  0  0  0  0  0  0
    7.2680   -4.9667   -0.8697 C   0  0  0  0  0  0  0  0  0  0  0  0
   12.6705    0.1372   -1.2707 S   0  0  0  0  0  0  0  0  0  0  0  0
   12.5518    0.8796   -2.5115 O   0  0  0  0  0  0  0  0  0  0  0  0
   12.8985    0.7839    0.0073 O   0  0  0  0  0  0  0  0  0  0  0  0
   13.8706   -1.1553   -1.4872 C   0  0  0  0  0  0  0  0  0  0  0  0
    4.6439   -1.3175    3.1034 H   0  0  0  0  0  0  0  0  0  0  0  0
    4.3287    2.7629    1.7897 H   0  0  0  0  0  0  0  0  0  0  0  0
    6.0971   -1.8231    1.2375 H   0  0  0  0  0  0  0  0  0  0  0  0
    5.7708    2.2610   -0.1430 H   0  0  0  0  0  0  0  0  0  0  0  0
    7.5878    0.7784   -0.8447 H   0  0  0  0  0  0  0  0  0  0  0  0
    6.0105   -2.5473   -1.0736 H   0  0  0  0  0  0  0  0  0  0  0  0
    6.1920   -4.8428   -0.7196 H   0  0  0  0  0  0  0  0  0  0  0  0
    7.6777   -5.4922   -0.0012 H   0  0  0  0  0  0  0  0  0  0  0  0
    7.4418   -5.5614   -1.7687 H   0  0  0  0  0  0  0  0  0  0  0  0
   13.6072   -1.7525   -2.3627 H   0  0  0  0  0  0  0  0  0  0  0  0
   13.9034   -1.7743   -0.5882 H   0  0  0  0  0  0  0  0  0  0  0  0
   14.8465   -0.6899   -1.6462 H   0  0  0  0  0  0  0  0  0  0  0  0
  1  2  1  0  0  0  0
  2  3  2  0  0  0  0
  2  4  1  0  0  0  0
  3  5  1  0  0  0  0
  3 23  1  0  0  0  0
  4  6  2  0  0  0  0
  4 24  1  0  0  0  0
  5  7  2  0  0  0  0
  5 25  1  0  0  0  0
  6  7  1  0  0  0  0
  6 26  1  0  0  0  0
  7  8  1  0  0  0  0
  8  9  1  0  0  0  0
  8 27  1  0  0  0  0
  9 10  1  0  0  0  0
  9 11  2  0  0  0  0
 10 12  1  0  0  0  0
 10 13  1  0  0  0  0
 11 14  1  0  0  0  0
 11 28  1  0  0  0  0
 12 15  2  0  0  0  0
 13 16  1  0  0  0  0
 13 17  2  0  0  0  0
 14 18  1  0  0  0  0
 14 16  2  0  0  0  0
 15 19  1  0  0  0  0
 15 17  1  0  0  0  0
 18 29  1  0  0  0  0
 18 30  1  0  0  0  0
 18 31  1  0  0  0  0
 19 20  2  0  0  0  0
 19 21  2  0  0  0  0
 19 22  1  0  0  0  0
 22 32  1  0  0  0  0
 22 33  1  0  0  0  0
 22 34  1  0  0  0  0
M  END
>  <Molecule Name>
1281824

>  <MolRegNo>
1281824

>  <m>
=

>  <Value>
45

>  <Unit>
nM

>  <Type>
IC50

>  <pIC50>
7.35

>  <Ligand Efficiency>
0.46

>  <Binding Efficiency>
21.75

>  <Surface Efficiency>
8.23

>  <Assay Index>
642520

>  <Assay Category>


>  <Assay Organism>
Plasmodium falciparum

>  <Target ID>
100588

>  <Target Name>
Dihydroorotate dehydrogenase

>  <Target Organism>
Plasmodium falciparum

>  <Target Description>
Target is a single protein chain

>  <Sequence Accession>
Q54A96

>  <Reference>
J. Med. Chem. 54 (15), 5540-5561 (2011)

>  <Pubmed ID>
21696174

>  <DOI>
10.1021/jm200592f

$$$$
Compound 13
 OpenBabel11072204193D

 32 34  0  0  0  0  0  0  0  0999 V2000
    9.8801    2.9000   -2.7288 Cl  0  0  0  0  0  0  0  0  0  0  0  0
    8.6705    1.9816   -1.9165 C   0  0  0  0  0  0  0  0  0  0  0  0
    7.4339    2.5717   -1.6239 C   0  0  0  0  0  0  0  0  0  0  0  0
    8.9359    0.6683   -1.5498 C   0  0  0  0  0  0  0  0  0  0  0  0
    6.4399    1.8716   -0.9280 C   0  0  0  0  0  0  0  0  0  0  0  0
    7.9523   -0.0594   -0.8881 C   0  0  0  0  0  0  0  0  0  0  0  0
    5.2159    2.4322   -0.5009 N   0  0  0  0  0  0  0  0  0  0  0  0
    6.7257    0.5414   -0.5724 C   0  0  0  0  0  0  0  0  0  0  0  0
    4.7638    3.7510   -0.4597 C   0  0  0  0  0  0  0  0  0  0  0  0
    3.3583    3.9558   -0.3629 N   0  0  0  0  0  0  0  0  0  0  0  0
    5.5336    4.8563   -0.4311 C   0  0  0  0  0  0  0  0  0  0  0  0
    2.3542    3.0339   -0.2940 N   0  0  0  0  0  0  0  0  0  0  0  0
    2.8066    5.2432   -0.2865 C   0  0  0  0  0  0  0  0  0  0  0  0
    4.8527    6.1848   -0.4140 C   0  0  0  0  0  0  0  0  0  0  0  0
    1.2747    3.8135   -0.1763 C   0  0  0  0  0  0  0  0  0  0  0  0
    3.5729    6.3655   -0.3388 N   0  0  0  0  0  0  0  0  0  0  0  0
    1.5045    5.1525   -0.1696 N   0  0  0  0  0  0  0  0  0  0  0  0
    5.7290    7.4084   -0.5018 C   0  0  0  0  0  0  0  0  0  0  0  0
   -0.3352    3.1538   -0.0309 S   0  0  0  0  0  0  0  0  0  0  0  0
   -1.2684    4.6640    0.3392 C   0  0  0  0  0  0  0  0  0  0  0  0
    7.2625    3.5787   -1.9838 H   0  0  0  0  0  0  0  0  0  0  0  0
    9.8944    0.2095   -1.7798 H   0  0  0  0  0  0  0  0  0  0  0  0
    8.1407   -1.0927   -0.6071 H   0  0  0  0  0  0  0  0  0  0  0  0
    4.4780    1.7496   -0.3096 H   0  0  0  0  0  0  0  0  0  0  0  0
    5.9876   -0.0506   -0.0345 H   0  0  0  0  0  0  0  0  0  0  0  0
    6.6119    4.8436   -0.4012 H   0  0  0  0  0  0  0  0  0  0  0  0
    6.7808    7.1422   -0.6313 H   0  0  0  0  0  0  0  0  0  0  0  0
    5.6179    7.9958    0.4136 H   0  0  0  0  0  0  0  0  0  0  0  0
    5.4121    8.0134   -1.3566 H   0  0  0  0  0  0  0  0  0  0  0  0
   -2.3265    4.4178    0.4679 H   0  0  0  0  0  0  0  0  0  0  0  0
   -1.1863    5.3897   -0.4759 H   0  0  0  0  0  0  0  0  0  0  0  0
   -0.9110    5.1218    1.2668 H   0  0  0  0  0  0  0  0  0  0  0  0
  1  2  1  0  0  0  0
  2  3  2  0  0  0  0
  2  4  1  0  0  0  0
  3  5  1  0  0  0  0
  3 21  1  0  0  0  0
  4  6  2  0  0  0  0
  4 22  1  0  0  0  0
  5  7  1  0  0  0  0
  5  8  2  0  0  0  0
  6  8  1  0  0  0  0
  6 23  1  0  0  0  0
  7  9  1  0  0  0  0
  7 24  1  0  0  0  0
  8 25  1  0  0  0  0
  9 10  1  0  0  0  0
  9 11  2  0  0  0  0
 10 12  1  0  0  0  0
 10 13  1  0  0  0  0
 11 14  1  0  0  0  0
 11 26  1  0  0  0  0
 12 15  2  0  0  0  0
 13 16  1  0  0  0  0
 13 17  2  0  0  0  0
 14 18  1  0  0  0  0
 14 16  2  0  0  0  0
 15 19  1  0  0  0  0
 15 17  1  0  0  0  0
 18 27  1  0  0  0  0
 18 28  1  0  0  0  0
 18 29  1  0  0  0  0
 19 20  1  0  0  0  0
 20 30  1  0  0  0  0
 20 31  1  0  0  0  0
 20 32  1  0  0  0  0
M  END
>  <Molecule Name>
1281821

>  <MolRegNo>
1281821

>  <m>
=

>  <Value>
26

>  <Unit>
nM

>  <Type>
IC50

>  <pIC50>
7.58

>  <Ligand Efficiency>
0.52

>  <Binding Efficiency>
24.8

>  <Surface Efficiency>
13.76

>  <Assay Index>
642520

>  <Assay Category>


>  <Assay Organism>
Plasmodium falciparum

>  <Target ID>
100588

>  <Target Name>
Dihydroorotate dehydrogenase

>  <Target Organism>
Plasmodium falciparum

>  <Target Description>
Target is a single protein chain

>  <Sequence Accession>
Q54A96

>  <Reference>
J. Med. Chem. 54 (15), 5540-5561 (2011)

>  <Pubmed ID>
21696174

>  <DOI>
10.1021/jm200592f

$$$$
Compound 14
 OpenBabel11072204193D

 32 34  0  0  0  0  0  0  0  0999 V2000
    3.4299    1.1092    3.9521 Cl  0  0  0  0  0  0  0  0  0  0  0  0
    4.4047    0.7541    2.5811 C   0  0  0  0  0  0  0  0  0  0  0  0
    4.8898   -0.5334    2.3972 C   0  0  0  0  0  0  0  0  0  0  0  0
    4.7201    1.7539    1.6654 C   0  0  0  0  0  0  0  0  0  0  0  0
    5.7278   -0.8104    1.3145 C   0  0  0  0  0  0  0  0  0  0  0  0
    5.5561    1.4689    0.5763 C   0  0  0  0  0  0  0  0  0  0  0  0
    6.1138    0.1928    0.4084 C   0  0  0  0  0  0  0  0  0  0  0  0
    6.9898   -0.0352   -0.6926 N   0  0  0  0  0  0  0  0  0  0  0  0
    7.6795   -1.2379   -0.8931 C   0  0  0  0  0  0  0  0  0  0  0  0
    9.0923   -1.2166   -0.9524 N   0  0  0  0  0  0  0  0  0  0  0  0
    7.0663   -2.4243   -1.0433 C   0  0  0  0  0  0  0  0  0  0  0  0
    9.9480   -0.1576   -0.9328 N   0  0  0  0  0  0  0  0  0  0  0  0
    9.8246   -2.4059   -1.0648 C   0  0  0  0  0  0  0  0  0  0  0  0
    7.9333   -3.6379   -1.0234 C   0  0  0  0  0  0  0  0  0  0  0  0
   11.1326   -0.7637   -1.0625 C   0  0  0  0  0  0  0  0  0  0  0  0
    9.2274   -3.6312   -1.0535 N   0  0  0  0  0  0  0  0  0  0  0  0
   11.1024   -2.1207   -1.1353 N   0  0  0  0  0  0  0  0  0  0  0  0
    7.2324   -4.9650   -0.8914 C   0  0  0  0  0  0  0  0  0  0  0  0
   12.6270    0.1337   -1.1502 S   0  0  0  0  0  0  0  0  0  0  0  0
   13.7982   -1.2233   -1.4211 C   0  0  0  0  0  0  0  0  0  0  0  0
    4.6335   -1.3279    3.0947 H   0  0  0  0  0  0  0  0  0  0  0  0
    4.3290    2.7592    1.7962 H   0  0  0  0  0  0  0  0  0  0  0  0
    6.0955   -1.8268    1.2343 H   0  0  0  0  0  0  0  0  0  0  0  0
    5.7803    2.2632   -0.1316 H   0  0  0  0  0  0  0  0  0  0  0  0
    7.6075    0.7746   -0.8188 H   0  0  0  0  0  0  0  0  0  0  0  0
    5.9928   -2.5338   -1.0813 H   0  0  0  0  0  0  0  0  0  0  0  0
    6.1550   -4.8364   -0.7573 H   0  0  0  0  0  0  0  0  0  0  0  0
    7.6293   -5.4861   -0.0146 H   0  0  0  0  0  0  0  0  0  0  0  0
    7.4176   -5.5657   -1.7844 H   0  0  0  0  0  0  0  0  0  0  0  0
   14.8065   -0.8182   -1.5456 H   0  0  0  0  0  0  0  0  0  0  0  0
   13.5447   -1.7846   -2.3259 H   0  0  0  0  0  0  0  0  0  0  0  0
   13.8084   -1.9049   -0.5650 H   0  0  0  0  0  0  0  0  0  0  0  0
  1  2  1  0  0  0  0
  2  3  2  0  0  0  0
  2  4  1  0  0  0  0
  3  5  1  0  0  0  0
  3 21  1  0  0  0  0
  4  6  2  0  0  0  0
  4 22  1  0  0  0  0
  5  7  2  0  0  0  0
  5 23  1  0  0  0  0
  6  7  1  0  0  0  0
  6 24  1  0  0  0  0
  7  8  1  0  0  0  0
  8  9  1  0  0  0  0
  8 25  1  0  0  0  0
  9 10  1  0  0  0  0
  9 11  2  0  0  0  0
 10 12  1  0  0  0  0
 10 13  1  0  0  0  0
 11 14  1  0  0  0  0
 11 26  1  0  0  0  0
 12 15  2  0  0  0  0
 13 16  1  0  0  0  0
 13 17  2  0  0  0  0
 14 18  1  0  0  0  0
 14 16  2  0  0  0  0
 15 19  1  0  0  0  0
 15 17  1  0  0  0  0
 18 27  1  0  0  0  0
 18 28  1  0  0  0  0
 18 29  1  0  0  0  0
 19 20  1  0  0  0  0
 20 30  1  0  0  0  0
 20 31  1  0  0  0  0
 20 32  1  0  0  0  0
M  END
>  <Molecule Name>
1281820

>  <MolRegNo>
1281820

>  <m>
=

>  <Value>
30

>  <Unit>
nM

>  <Type>
IC50

>  <pIC50>
7.52

>  <Ligand Efficiency>
0.51

>  <Binding Efficiency>
24.6

>  <Surface Efficiency>
13.65

>  <Assay Index>
642520

>  <Assay Category>


>  <Assay Organism>
Plasmodium falciparum

>  <Target ID>
100588

>  <Target Name>
Dihydroorotate dehydrogenase

>  <Target Organism>
Plasmodium falciparum

>  <Target Description>
Target is a single protein chain

>  <Sequence Accession>
Q54A96

>  <Reference>
J. Med. Chem. 54 (15), 5540-5561 (2011)

>  <Pubmed ID>
21696174

>  <DOI>
10.1021/jm200592f

$$$$
Compound 15
 OpenBabel11072204193D

 41 43  0  0  0  0  0  0  0  0999 V2000
    7.5489    0.6852   -0.7513 F   0  0  0  0  0  0  0  0  0  0  0  0
    6.7953    1.8099   -0.5908 C   0  0  0  0  0  0  0  0  0  0  0  0
    6.2520    1.7219    0.6526 F   0  0  0  0  0  0  0  0  0  0  0  0
    7.6804    2.8443   -0.5435 F   0  0  0  0  0  0  0  0  0  0  0  0
    5.7592    1.9981   -1.6714 C   0  0  0  0  0  0  0  0  0  0  0  0
    5.6465    1.0822   -2.7195 C   0  0  0  0  0  0  0  0  0  0  0  0
    4.9151    3.1185   -1.6699 C   0  0  0  0  0  0  0  0  0  0  0  0
    4.7761    1.3271   -3.7844 C   0  0  0  0  0  0  0  0  0  0  0  0
    4.0383    3.3552   -2.7382 C   0  0  0  0  0  0  0  0  0  0  0  0
    4.0032    2.4960   -3.8445 C   0  0  0  0  0  0  0  0  0  0  0  0
    3.1613    2.8281   -4.9471 N   0  0  0  0  0  0  0  0  0  0  0  0
    3.2007    2.1360   -6.1629 C   0  0  0  0  0  0  0  0  0  0  0  0
    3.5972    2.8313   -7.3282 N   0  0  0  0  0  0  0  0  0  0  0  0
    2.8763    0.8363   -6.2908 C   0  0  0  0  0  0  0  0  0  0  0  0
    3.8902    4.1551   -7.4889 N   0  0  0  0  0  0  0  0  0  0  0  0
    3.7339    2.1709   -8.5535 C   0  0  0  0  0  0  0  0  0  0  0  0
    3.1498    0.1988   -7.6093 C   0  0  0  0  0  0  0  0  0  0  0  0
    4.1790    4.2204   -8.7937 C   0  0  0  0  0  0  0  0  0  0  0  0
    3.5352    0.8260   -8.6792 N   0  0  0  0  0  0  0  0  0  0  0  0
    4.0931    3.0382   -9.4718 N   0  0  0  0  0  0  0  0  0  0  0  0
    3.0138   -1.3010   -7.6780 C   0  0  0  0  0  0  0  0  0  0  0  0
    4.5341    5.4794   -9.4996 C   0  0  0  0  0  0  0  0  0  0  0  0
    3.5229    5.8011  -10.5983 C   0  0  0  0  0  0  0  0  0  0  0  0
    3.8866    7.0246  -11.2446 O   0  0  0  0  0  0  0  0  0  0  0  0
    2.9662    7.3528  -12.2797 C   0  0  0  0  0  0  0  0  0  0  0  0
    6.2618    0.1834   -2.7380 H   0  0  0  0  0  0  0  0  0  0  0  0
    4.9574    3.8308   -0.8471 H   0  0  0  0  0  0  0  0  0  0  0  0
    4.7691    0.5948   -4.5835 H   0  0  0  0  0  0  0  0  0  0  0  0
    3.4056    4.2399   -2.7113 H   0  0  0  0  0  0  0  0  0  0  0  0
    3.2204    3.8403   -5.1119 H   0  0  0  0  0  0  0  0  0  0  0  0
    2.5145    0.2358   -5.4674 H   0  0  0  0  0  0  0  0  0  0  0  0
    2.7915   -1.7270   -6.6963 H   0  0  0  0  0  0  0  0  0  0  0  0
    3.9563   -1.7293   -8.0339 H   0  0  0  0  0  0  0  0  0  0  0  0
    2.2126   -1.5629   -8.3735 H   0  0  0  0  0  0  0  0  0  0  0  0
    5.5335    5.3816   -9.9423 H   0  0  0  0  0  0  0  0  0  0  0  0
    4.6010    6.3201   -8.7993 H   0  0  0  0  0  0  0  0  0  0  0  0
    2.5195    5.9048  -10.1674 H   0  0  0  0  0  0  0  0  0  0  0  0
    3.4990    4.9961  -11.3414 H   0  0  0  0  0  0  0  0  0  0  0  0
    3.2900    8.2857  -12.7487 H   0  0  0  0  0  0  0  0  0  0  0  0
    1.9636    7.4995  -11.8662 H   0  0  0  0  0  0  0  0  0  0  0  0
    2.9467    6.5674  -13.0420 H   0  0  0  0  0  0  0  0  0  0  0  0
  1  2  1  0  0  0  0
  2  3  1  0  0  0  0
  2  4  1  0  0  0  0
  2  5  1  0  0  0  0
  5  6  2  0  0  0  0
  5  7  1  0  0  0  0
  6  8  1  0  0  0  0
  6 26  1  0  0  0  0
  7  9  2  0  0  0  0
  7 27  1  0  0  0  0
  8 10  2  0  0  0  0
  8 28  1  0  0  0  0
  9 10  1  0  0  0  0
  9 29  1  0  0  0  0
 10 11  1  0  0  0  0
 11 12  1  0  0  0  0
 11 30  1  0  0  0  0
 12 13  1  0  0  0  0
 12 14  2  0  0  0  0
 13 15  1  0  0  0  0
 13 16  1  0  0  0  0
 14 17  1  0  0  0  0
 14 31  1  0  0  0  0
 15 18  2  0  0  0  0
 16 19  1  0  0  0  0
 16 20  2  0  0  0  0
 17 21  1  0  0  0  0
 17 19  2  0  0  0  0
 18 22  1  0  0  0  0
 18 20  1  0  0  0  0
 21 32  1  0  0  0  0
 21 33  1  0  0  0  0
 21 34  1  0  0  0  0
 22 23  1  0  0  0  0
 22 35  1  0  0  0  0
 22 36  1  0  0  0  0
 23 24  1  0  0  0  0
 23 37  1  0  0  0  0
 23 38  1  0  0  0  0
 24 25  1  0  0  0  0
 25 39  1  0  0  0  0
 25 40  1  0  0  0  0
 25 41  1  0  0  0  0
M  END
>  <Molecule Name>
1281818

>  <MolRegNo>
1281818

>  <m>
=

>  <Value>
2500

>  <Unit>
nM

>  <Type>
IC50

>  <pIC50>
5.6

>  <Ligand Efficiency>
0.31

>  <Binding Efficiency>
15.95

>  <Surface Efficiency>
8.71

>  <Assay Index>
642520

>  <Assay Category>


>  <Assay Organism>
Plasmodium falciparum

>  <Target ID>
100588

>  <Target Name>
Dihydroorotate dehydrogenase

>  <Target Organism>
Plasmodium falciparum

>  <Target Description>
Target is a single protein chain

>  <Sequence Accession>
Q54A96

>  <Reference>
J. Med. Chem. 54 (15), 5540-5561 (2011)

>  <Pubmed ID>
21696174

>  <DOI>
10.1021/jm200592f

$$$$
Compound 16
 OpenBabel11072204193D

 38 40  0  0  0  0  0  0  0  0999 V2000
    7.5369    0.6483   -0.7635 F   0  0  0  0  0  0  0  0  0  0  0  0
    6.7873    1.7723   -0.5919 C   0  0  0  0  0  0  0  0  0  0  0  0
    6.2490    1.6776    0.6542 F   0  0  0  0  0  0  0  0  0  0  0  0
    7.6764    2.8038   -0.5420 F   0  0  0  0  0  0  0  0  0  0  0  0
    5.7476    1.9692   -1.6679 C   0  0  0  0  0  0  0  0  0  0  0  0
    5.6298    1.0585   -2.7207 C   0  0  0  0  0  0  0  0  0  0  0  0
    4.9104    3.0936   -1.6608 C   0  0  0  0  0  0  0  0  0  0  0  0
    4.7609    1.3140   -3.7844 C   0  0  0  0  0  0  0  0  0  0  0  0
    4.0349    3.3404   -2.7276 C   0  0  0  0  0  0  0  0  0  0  0  0
    3.9958    2.4882   -3.8392 C   0  0  0  0  0  0  0  0  0  0  0  0
    3.1587    2.8319   -4.9417 N   0  0  0  0  0  0  0  0  0  0  0  0
    3.1864    2.1449   -6.1614 C   0  0  0  0  0  0  0  0  0  0  0  0
    3.5750    2.8403   -7.3267 N   0  0  0  0  0  0  0  0  0  0  0  0
    2.8564    0.8458   -6.2903 C   0  0  0  0  0  0  0  0  0  0  0  0
    3.8805    4.1611   -7.4838 N   0  0  0  0  0  0  0  0  0  0  0  0
    3.6900    2.1831   -8.5590 C   0  0  0  0  0  0  0  0  0  0  0  0
    3.1214    0.2111   -7.6125 C   0  0  0  0  0  0  0  0  0  0  0  0
    4.1573    4.2290   -8.7959 C   0  0  0  0  0  0  0  0  0  0  0  0
    3.4936    0.8398   -8.6855 N   0  0  0  0  0  0  0  0  0  0  0  0
    4.0383    3.0498   -9.4808 N   0  0  0  0  0  0  0  0  0  0  0  0
    2.9963   -1.2913   -7.6792 C   0  0  0  0  0  0  0  0  0  0  0  0
    4.5691    5.4828   -9.5090 C   0  0  0  0  0  0  0  0  0  0  0  0
    5.9905    5.7049   -9.5547 O   0  0  0  0  0  0  0  0  0  0  0  0
    6.6712    4.7397  -10.3493 C   0  0  0  0  0  0  0  0  0  0  0  0
    6.2399    0.1563   -2.7440 H   0  0  0  0  0  0  0  0  0  0  0  0
    4.9577    3.8011   -0.8340 H   0  0  0  0  0  0  0  0  0  0  0  0
    4.7497    0.5860   -4.5873 H   0  0  0  0  0  0  0  0  0  0  0  0
    3.4070    4.2282   -2.6951 H   0  0  0  0  0  0  0  0  0  0  0  0
    3.2252    3.8441   -5.1028 H   0  0  0  0  0  0  0  0  0  0  0  0
    2.4951    0.2443   -5.4684 H   0  0  0  0  0  0  0  0  0  0  0  0
    2.7803   -1.7185   -6.6975 H   0  0  0  0  0  0  0  0  0  0  0  0
    3.9413   -1.7089   -8.0351 H   0  0  0  0  0  0  0  0  0  0  0  0
    2.1996   -1.5643   -8.3770 H   0  0  0  0  0  0  0  0  0  0  0  0
    4.1299    6.3501   -9.0033 H   0  0  0  0  0  0  0  0  0  0  0  0
    4.1733    5.4806  -10.5305 H   0  0  0  0  0  0  0  0  0  0  0  0
    7.7151    5.0520  -10.4443 H   0  0  0  0  0  0  0  0  0  0  0  0
    6.2370    4.6747  -11.3519 H   0  0  0  0  0  0  0  0  0  0  0  0
    6.6577    3.7603   -9.8634 H   0  0  0  0  0  0  0  0  0  0  0  0
  1  2  1  0  0  0  0
  2  3  1  0  0  0  0
  2  4  1  0  0  0  0
  2  5  1  0  0  0  0
  5  6  2  0  0  0  0
  5  7  1  0  0  0  0
  6  8  1  0  0  0  0
  6 25  1  0  0  0  0
  7  9  2  0  0  0  0
  7 26  1  0  0  0  0
  8 10  2  0  0  0  0
  8 27  1  0  0  0  0
  9 10  1  0  0  0  0
  9 28  1  0  0  0  0
 10 11  1  0  0  0  0
 11 12  1  0  0  0  0
 11 29  1  0  0  0  0
 12 13  1  0  0  0  0
 12 14  2  0  0  0  0
 13 15  1  0  0  0  0
 13 16  1  0  0  0  0
 14 17  1  0  0  0  0
 14 30  1  0  0  0  0
 15 18  2  0  0  0  0
 16 19  1  0  0  0  0
 16 20  2  0  0  0  0
 17 21  1  0  0  0  0
 17 19  2  0  0  0  0
 18 22  1  0  0  0  0
 18 20  1  0  0  0  0
 21 31  1  0  0  0  0
 21 32  1  0  0  0  0
 21 33  1  0  0  0  0
 22 23  1  0  0  0  0
 22 34  1  0  0  0  0
 22 35  1  0  0  0  0
 23 24  1  0  0  0  0
 24 36  1  0  0  0  0
 24 37  1  0  0  0  0
 24 38  1  0  0  0  0
M  END
>  <Molecule Name>
1281814

>  <MolRegNo>
1281814

>  <m>
=

>  <Value>
410

>  <Unit>
nM

>  <Type>
IC50

>  <pIC50>
6.39

>  <Ligand Efficiency>
0.36

>  <Binding Efficiency>
18.94

>  <Surface Efficiency>
9.93

>  <Assay Index>
642520

>  <Assay Category>


>  <Assay Organism>
Plasmodium falciparum

>  <Target ID>
100588

>  <Target Name>
Dihydroorotate dehydrogenase

>  <Target Organism>
Plasmodium falciparum

>  <Target Description>
Target is a single protein chain

>  <Sequence Accession>
Q54A96

>  <Reference>
J. Med. Chem. 54 (15), 5540-5561 (2011)

>  <Pubmed ID>
21696174

>  <DOI>
10.1021/jm200592f

$$$$
Compound 17
 OpenBabel11072204193D

 35 37  0  0  0  0  0  0  0  0999 V2000
    9.4145    2.8655   -3.4846 Cl  0  0  0  0  0  0  0  0  0  0  0  0
    8.5247    2.1452   -2.1990 C   0  0  0  0  0  0  0  0  0  0  0  0
    7.2237    2.5716   -1.9361 C   0  0  0  0  0  0  0  0  0  0  0  0
    9.1131    1.1504   -1.4244 C   0  0  0  0  0  0  0  0  0  0  0  0
    6.4803    2.0037   -0.8944 C   0  0  0  0  0  0  0  0  0  0  0  0
    8.3855    0.5700   -0.3877 C   0  0  0  0  0  0  0  0  0  0  0  0
    5.2043    2.4689   -0.5388 N   0  0  0  0  0  0  0  0  0  0  0  0
    7.0777    0.9933   -0.1290 C   0  0  0  0  0  0  0  0  0  0  0  0
    4.7157    3.7705   -0.5289 C   0  0  0  0  0  0  0  0  0  0  0  0
    3.3158    3.9294   -0.4174 N   0  0  0  0  0  0  0  0  0  0  0  0
    5.4615    4.8923   -0.5382 C   0  0  0  0  0  0  0  0  0  0  0  0
    2.3568    2.9649   -0.3352 N   0  0  0  0  0  0  0  0  0  0  0  0
    2.7217    5.1920   -0.3361 C   0  0  0  0  0  0  0  0  0  0  0  0
    4.7414    6.1992   -0.4744 C   0  0  0  0  0  0  0  0  0  0  0  0
    1.2438    3.6931   -0.1764 C   0  0  0  0  0  0  0  0  0  0  0  0
    3.4539    6.3406   -0.3799 N   0  0  0  0  0  0  0  0  0  0  0  0
    1.4251    5.0495   -0.1841 N   0  0  0  0  0  0  0  0  0  0  0  0
    5.5844    7.4490   -0.5163 C   0  0  0  0  0  0  0  0  0  0  0  0
   -0.0992    3.0970    0.1060 C   0  0  0  0  0  0  0  0  0  0  0  0
   -0.2217    2.5266    1.4220 O   0  0  0  0  0  0  0  0  0  0  0  0
   -0.0836    3.5010    2.4504 C   0  0  0  0  0  0  0  0  0  0  0  0
    6.7770    3.3335   -2.5711 H   0  0  0  0  0  0  0  0  0  0  0  0
   10.1317    0.8263   -1.6206 H   0  0  0  0  0  0  0  0  0  0  0  0
    8.8387   -0.2031    0.2280 H   0  0  0  0  0  0  0  0  0  0  0  0
    4.5327    1.7650   -0.2271 H   0  0  0  0  0  0  0  0  0  0  0  0
    6.5356    0.5452    0.7011 H   0  0  0  0  0  0  0  0  0  0  0  0
    6.5423    4.8934   -0.5522 H   0  0  0  0  0  0  0  0  0  0  0  0
    6.6454    7.2150   -0.6333 H   0  0  0  0  0  0  0  0  0  0  0  0
    5.4454    8.0086    0.4134 H   0  0  0  0  0  0  0  0  0  0  0  0
    5.2648    8.0694   -1.3584 H   0  0  0  0  0  0  0  0  0  0  0  0
   -0.2972    2.2940   -0.6122 H   0  0  0  0  0  0  0  0  0  0  0  0
   -0.8887    3.8466   -0.0310 H   0  0  0  0  0  0  0  0  0  0  0  0
   -0.2883    3.0156    3.4082 H   0  0  0  0  0  0  0  0  0  0  0  0
   -0.7974    4.3188    2.3126 H   0  0  0  0  0  0  0  0  0  0  0  0
    0.9382    3.8910    2.4844 H   0  0  0  0  0  0  0  0  0  0  0  0
  1  2  1  0  0  0  0
  2  3  2  0  0  0  0
  2  4  1  0  0  0  0
  3  5  1  0  0  0  0
  3 22  1  0  0  0  0
  4  6  2  0  0  0  0
  4 23  1  0  0  0  0
  5  7  1  0  0  0  0
  5  8  2  0  0  0  0
  6  8  1  0  0  0  0
  6 24  1  0  0  0  0
  7  9  1  0  0  0  0
  7 25  1  0  0  0  0
  8 26  1  0  0  0  0
  9 10  1  0  0  0  0
  9 11  2  0  0  0  0
 10 12  1  0  0  0  0
 10 13  1  0  0  0  0
 11 14  1  0  0  0  0
 11 27  1  0  0  0  0
 12 15  2  0  0  0  0
 13 16  1  0  0  0  0
 13 17  2  0  0  0  0
 14 18  1  0  0  0  0
 14 16  2  0  0  0  0
 15 19  1  0  0  0  0
 15 17  1  0  0  0  0
 18 28  1  0  0  0  0
 18 29  1  0  0  0  0
 18 30  1  0  0  0  0
 19 20  1  0  0  0  0
 19 31  1  0  0  0  0
 19 32  1  0  0  0  0
 20 21  1  0  0  0  0
 21 33  1  0  0  0  0
 21 34  1  0  0  0  0
 21 35  1  0  0  0  0
M  END
>  <Molecule Name>
1281813

>  <MolRegNo>
1281813

>  <m>
=

>  <Value>
1700

>  <Unit>
nM

>  <Type>
IC50

>  <pIC50>
5.77

>  <Ligand Efficiency>
0.38

>  <Binding Efficiency>
18.99

>  <Surface Efficiency>
8.97

>  <Assay Index>
642520

>  <Assay Category>


>  <Assay Organism>
Plasmodium falciparum

>  <Target ID>
100588

>  <Target Name>
Dihydroorotate dehydrogenase

>  <Target Organism>
Plasmodium falciparum

>  <Target Description>
Target is a single protein chain

>  <Sequence Accession>
Q54A96

>  <Reference>
J. Med. Chem. 54 (15), 5540-5561 (2011)

>  <Pubmed ID>
21696174

>  <DOI>
10.1021/jm200592f

$$$$
Compound 18
 OpenBabel11072204193D

 35 37  0  0  0  0  0  0  0  0999 V2000
    3.3046    1.1793    3.9264 Cl  0  0  0  0  0  0  0  0  0  0  0  0
    4.2871    0.8109    2.5660 C   0  0  0  0  0  0  0  0  0  0  0  0
    4.7592   -0.4820    2.3860 C   0  0  0  0  0  0  0  0  0  0  0  0
    4.6174    1.8061    1.6501 C   0  0  0  0  0  0  0  0  0  0  0  0
    5.5985   -0.7686    1.3047 C   0  0  0  0  0  0  0  0  0  0  0  0
    5.4529    1.5105    0.5633 C   0  0  0  0  0  0  0  0  0  0  0  0
    5.9937    0.2269    0.3956 C   0  0  0  0  0  0  0  0  0  0  0  0
    6.8613   -0.0105   -0.7096 N   0  0  0  0  0  0  0  0  0  0  0  0
    7.5570   -1.2076   -0.9026 C   0  0  0  0  0  0  0  0  0  0  0  0
    8.9674   -1.1662   -0.9803 N   0  0  0  0  0  0  0  0  0  0  0  0
    6.9628   -2.4075   -1.0386 C   0  0  0  0  0  0  0  0  0  0  0  0
    9.7997   -0.0863   -0.9917 N   0  0  0  0  0  0  0  0  0  0  0  0
    9.7190   -2.3381   -1.0801 C   0  0  0  0  0  0  0  0  0  0  0  0
    7.8503   -3.6059   -1.0192 C   0  0  0  0  0  0  0  0  0  0  0  0
   11.0066   -0.6625   -1.1140 C   0  0  0  0  0  0  0  0  0  0  0  0
    9.1473   -3.5772   -1.0545 N   0  0  0  0  0  0  0  0  0  0  0  0
   10.9962   -2.0310   -1.1583 N   0  0  0  0  0  0  0  0  0  0  0  0
    7.1729   -4.9456   -0.8858 C   0  0  0  0  0  0  0  0  0  0  0  0
   12.2936    0.0975   -1.2055 C   0  0  0  0  0  0  0  0  0  0  0  0
   12.6288    0.8753   -0.0444 O   0  0  0  0  0  0  0  0  0  0  0  0
   12.9293    0.0654    1.0851 C   0  0  0  0  0  0  0  0  0  0  0  0
    4.4949   -1.2699    3.0848 H   0  0  0  0  0  0  0  0  0  0  0  0
    4.2339    2.8155    1.7762 H   0  0  0  0  0  0  0  0  0  0  0  0
    5.9563   -1.7885    1.2270 H   0  0  0  0  0  0  0  0  0  0  0  0
    5.6891    2.3024   -0.1447 H   0  0  0  0  0  0  0  0  0  0  0  0
    7.4833    0.7966   -0.8376 H   0  0  0  0  0  0  0  0  0  0  0  0
    5.8891   -2.5346   -1.0667 H   0  0  0  0  0  0  0  0  0  0  0  0
    6.0932   -4.8354   -0.7491 H   0  0  0  0  0  0  0  0  0  0  0  0
    7.5793   -5.4653   -0.0127 H   0  0  0  0  0  0  0  0  0  0  0  0
    7.3645   -5.5388   -1.7823 H   0  0  0  0  0  0  0  0  0  0  0  0
   12.2313    0.7930   -2.0487 H   0  0  0  0  0  0  0  0  0  0  0  0
   13.1236   -0.5867   -1.4273 H   0  0  0  0  0  0  0  0  0  0  0  0
   13.2726    0.7201    1.8911 H   0  0  0  0  0  0  0  0  0  0  0  0
   13.7261   -0.6492    0.8565 H   0  0  0  0  0  0  0  0  0  0  0  0
   12.0351   -0.4604    1.4310 H   0  0  0  0  0  0  0  0  0  0  0  0
  1  2  1  0  0  0  0
  2  3  2  0  0  0  0
  2  4  1  0  0  0  0
  3  5  1  0  0  0  0
  3 22  1  0  0  0  0
  4  6  2  0  0  0  0
  4 23  1  0  0  0  0
  5  7  2  0  0  0  0
  5 24  1  0  0  0  0
  6  7  1  0  0  0  0
  6 25  1  0  0  0  0
  7  8  1  0  0  0  0
  8  9  1  0  0  0  0
  8 26  1  0  0  0  0
  9 10  1  0  0  0  0
  9 11  2  0  0  0  0
 10 12  1  0  0  0  0
 10 13  1  0  0  0  0
 11 14  1  0  0  0  0
 11 27  1  0  0  0  0
 12 15  2  0  0  0  0
 13 16  1  0  0  0  0
 13 17  2  0  0  0  0
 14 18  1  0  0  0  0
 14 16  2  0  0  0  0
 15 19  1  0  0  0  0
 15 17  1  0  0  0  0
 18 28  1  0  0  0  0
 18 29  1  0  0  0  0
 18 30  1  0  0  0  0
 19 20  1  0  0  0  0
 19 31  1  0  0  0  0
 19 32  1  0  0  0  0
 20 21  1  0  0  0  0
 21 33  1  0  0  0  0
 21 34  1  0  0  0  0
 21 35  1  0  0  0  0
M  END
>  <Molecule Name>
1281812

>  <MolRegNo>
1281812

>  <m>
=

>  <Value>
2200

>  <Unit>
nM

>  <Type>
IC50

>  <pIC50>
5.66

>  <Ligand Efficiency>
0.37

>  <Binding Efficiency>
18.63

>  <Surface Efficiency>
8.79

>  <Assay Index>
642520

>  <Assay Category>


>  <Assay Organism>
Plasmodium falciparum

>  <Target ID>
100588

>  <Target Name>
Dihydroorotate dehydrogenase

>  <Target Organism>
Plasmodium falciparum

>  <Target Description>
Target is a single protein chain

>  <Sequence Accession>
Q54A96

>  <Reference>
J. Med. Chem. 54 (15), 5540-5561 (2011)

>  <Pubmed ID>
21696174

>  <DOI>
10.1021/jm200592f

$$$$
Compound 19
 OpenBabel11072204193D

 34 36  0  0  0  0  0  0  0  0999 V2000
    3.2525   -0.2548    1.0182 F   0  0  0  0  0  0  0  0  0  0  0  0
    3.0951    0.3271   -0.2044 C   0  0  0  0  0  0  0  0  0  0  0  0
    1.9798    1.1003   -0.1094 F   0  0  0  0  0  0  0  0  0  0  0  0
    4.1411    1.1887   -0.3406 F   0  0  0  0  0  0  0  0  0  0  0  0
    3.0252   -0.6673   -1.3377 C   0  0  0  0  0  0  0  0  0  0  0  0
    3.1199   -2.0403   -1.0907 C   0  0  0  0  0  0  0  0  0  0  0  0
    2.9110   -0.2311   -2.6660 C   0  0  0  0  0  0  0  0  0  0  0  0
    3.1535   -2.9497   -2.1506 C   0  0  0  0  0  0  0  0  0  0  0  0
    2.9372   -1.1487   -3.7252 C   0  0  0  0  0  0  0  0  0  0  0  0
    3.0715   -2.5208   -3.4833 C   0  0  0  0  0  0  0  0  0  0  0  0
    3.1393   -3.4110   -4.5851 N   0  0  0  0  0  0  0  0  0  0  0  0
    2.9204   -4.7879   -4.5114 C   0  0  0  0  0  0  0  0  0  0  0  0
    3.7541   -5.6475   -5.2619 N   0  0  0  0  0  0  0  0  0  0  0  0
    1.9369   -5.3536   -3.7882 C   0  0  0  0  0  0  0  0  0  0  0  0
    4.7726   -5.3280   -6.1100 N   0  0  0  0  0  0  0  0  0  0  0  0
    3.6021   -7.0357   -5.2079 C   0  0  0  0  0  0  0  0  0  0  0  0
    1.9201   -6.8397   -3.7039 C   0  0  0  0  0  0  0  0  0  0  0  0
    5.1743   -6.5388   -6.5539 C   0  0  0  0  0  0  0  0  0  0  0  0
    2.6926   -7.6335   -4.3827 N   0  0  0  0  0  0  0  0  0  0  0  0
    4.4734   -7.5978   -6.0110 N   0  0  0  0  0  0  0  0  0  0  0  0
    0.9647   -7.4463   -2.7081 C   0  0  0  0  0  0  0  0  0  0  0  0
    6.2920   -6.7651   -7.5528 C   0  0  0  0  0  0  0  0  0  0  0  0
    6.8509   -5.6046   -7.9895 F   0  0  0  0  0  0  0  0  0  0  0  0
    7.3074   -7.5076   -7.0282 F   0  0  0  0  0  0  0  0  0  0  0  0
    5.8611   -7.4262   -8.6640 F   0  0  0  0  0  0  0  0  0  0  0  0
    3.1971   -2.4148   -0.0707 H   0  0  0  0  0  0  0  0  0  0  0  0
    2.8182    0.8323   -2.8839 H   0  0  0  0  0  0  0  0  0  0  0  0
    3.2831   -3.9999   -1.9054 H   0  0  0  0  0  0  0  0  0  0  0  0
    2.8487   -0.7811   -4.7455 H   0  0  0  0  0  0  0  0  0  0  0  0
    3.9248   -3.1763   -5.2013 H   0  0  0  0  0  0  0  0  0  0  0  0
    1.2110   -4.7806   -3.2270 H   0  0  0  0  0  0  0  0  0  0  0  0
    0.4000   -6.6752   -2.1763 H   0  0  0  0  0  0  0  0  0  0  0  0
    1.5372   -8.0219   -1.9743 H   0  0  0  0  0  0  0  0  0  0  0  0
    0.2665   -8.1083   -3.2246 H   0  0  0  0  0  0  0  0  0  0  0  0
  1  2  1  0  0  0  0
  2  3  1  0  0  0  0
  2  4  1  0  0  0  0
  2  5  1  0  0  0  0
  5  6  2  0  0  0  0
  5  7  1  0  0  0  0
  6  8  1  0  0  0  0
  6 26  1  0  0  0  0
  7  9  2  0  0  0  0
  7 27  1  0  0  0  0
  8 10  2  0  0  0  0
  8 28  1  0  0  0  0
  9 10  1  0  0  0  0
  9 29  1  0  0  0  0
 10 11  1  0  0  0  0
 11 12  1  0  0  0  0
 11 30  1  0  0  0  0
 12 13  1  0  0  0  0
 12 14  2  0  0  0  0
 13 15  1  0  0  0  0
 13 16  1  0  0  0  0
 14 17  1  0  0  0  0
 14 31  1  0  0  0  0
 15 18  2  0  0  0  0
 16 19  1  0  0  0  0
 16 20  2  0  0  0  0
 17 21  1  0  0  0  0
 17 19  2  0  0  0  0
 18 22  1  0  0  0  0
 18 20  1  0  0  0  0
 21 32  1  0  0  0  0
 21 33  1  0  0  0  0
 21 34  1  0  0  0  0
 22 23  1  0  0  0  0
 22 24  1  0  0  0  0
 22 25  1  0  0  0  0
M  END
>  <Molecule Name>
1281810

>  <MolRegNo>
1281810

>  <m>
=

>  <Value>
35

>  <Unit>
nM

>  <Type>
IC50

>  <pIC50>
7.46

>  <Ligand Efficiency>
0.41

>  <Binding Efficiency>
20.64

>  <Surface Efficiency>
13.53

>  <Assay Index>
642520

>  <Assay Category>


>  <Assay Organism>
Plasmodium falciparum

>  <Target ID>
100588

>  <Target Name>
Dihydroorotate dehydrogenase

>  <Target Organism>
Plasmodium falciparum

>  <Target Description>
Target is a single protein chain

>  <Sequence Accession>
Q54A96

>  <Reference>
J. Med. Chem. 54 (15), 5540-5561 (2011)

>  <Pubmed ID>
21696174

>  <DOI>
10.1021/jm200592f

$$$$
Compound 20
 OpenBabel11072204193D

 40 42  0  0  0  0  0  0  0  0999 V2000
    6.0434   -0.8453    0.5634 F   0  0  0  0  0  0  0  0  0  0  0  0
    5.3323   -0.1447   -0.3641 C   0  0  0  0  0  0  0  0  0  0  0  0
    4.4430    0.6094    0.3378 F   0  0  0  0  0  0  0  0  0  0  0  0
    6.2133    0.7336   -0.9195 F   0  0  0  0  0  0  0  0  0  0  0  0
    4.6678   -1.0183   -1.4001 C   0  0  0  0  0  0  0  0  0  0  0  0
    4.7963   -2.4113   -1.3557 C   0  0  0  0  0  0  0  0  0  0  0  0
    3.9476   -0.4408   -2.4566 C   0  0  0  0  0  0  0  0  0  0  0  0
    4.2596   -3.2053   -2.3726 C   0  0  0  0  0  0  0  0  0  0  0  0
    3.4147   -1.2393   -3.4754 C   0  0  0  0  0  0  0  0  0  0  0  0
    3.5673   -2.6291   -3.4470 C   0  0  0  0  0  0  0  0  0  0  0  0
    3.1545   -3.3837   -4.5825 N   0  0  0  0  0  0  0  0  0  0  0  0
    2.9248   -4.7647   -4.4937 C   0  0  0  0  0  0  0  0  0  0  0  0
    3.7223   -5.6260   -5.2719 N   0  0  0  0  0  0  0  0  0  0  0  0
    1.9898   -5.3102   -3.6958 C   0  0  0  0  0  0  0  0  0  0  0  0
    4.7127   -5.3086   -6.1476 N   0  0  0  0  0  0  0  0  0  0  0  0
    3.5852   -7.0123   -5.1893 C   0  0  0  0  0  0  0  0  0  0  0  0
    1.9349   -6.7998   -3.6511 C   0  0  0  0  0  0  0  0  0  0  0  0
    5.1462   -6.5205   -6.5433 C   0  0  0  0  0  0  0  0  0  0  0  0
    2.6763   -7.5986   -4.3585 N   0  0  0  0  0  0  0  0  0  0  0  0
    4.4614   -7.5779   -5.9870 N   0  0  0  0  0  0  0  0  0  0  0  0
    0.9608   -7.4155   -2.6767 C   0  0  0  0  0  0  0  0  0  0  0  0
    6.2551   -6.7395   -7.5497 C   0  0  0  0  0  0  0  0  0  0  0  0
    6.7961   -5.5591   -7.9804 F   0  0  0  0  0  0  0  0  0  0  0  0
    7.2944   -7.4183   -6.9732 F   0  0  0  0  0  0  0  0  0  0  0  0
    5.8079   -7.5333   -8.7764 C   0  0  0  0  0  0  0  0  0  0  0  0
    4.7185   -6.8369   -9.5798 C   0  0  0  0  0  0  0  0  0  0  0  0
    5.3464   -2.8904   -0.5474 H   0  0  0  0  0  0  0  0  0  0  0  0
    3.8250    0.6405   -2.5067 H   0  0  0  0  0  0  0  0  0  0  0  0
    4.4306   -4.2774   -2.3263 H   0  0  0  0  0  0  0  0  0  0  0  0
    2.8841   -0.7665   -4.2998 H   0  0  0  0  0  0  0  0  0  0  0  0
    3.8423   -3.2062   -5.3267 H   0  0  0  0  0  0  0  0  0  0  0  0
    1.3230   -4.7219   -3.0811 H   0  0  0  0  0  0  0  0  0  0  0  0
    0.3849   -6.6518   -2.1492 H   0  0  0  0  0  0  0  0  0  0  0  0
    1.5185   -8.0048   -1.9418 H   0  0  0  0  0  0  0  0  0  0  0  0
    0.2720   -8.0723   -3.2178 H   0  0  0  0  0  0  0  0  0  0  0  0
    5.4648   -8.5311   -8.4777 H   0  0  0  0  0  0  0  0  0  0  0  0
    6.6761   -7.6878   -9.4286 H   0  0  0  0  0  0  0  0  0  0  0  0
    3.8033   -6.7144   -8.9923 H   0  0  0  0  0  0  0  0  0  0  0  0
    4.4672   -7.4283  -10.4658 H   0  0  0  0  0  0  0  0  0  0  0  0
    5.0486   -5.8484   -9.9138 H   0  0  0  0  0  0  0  0  0  0  0  0
  1  2  1  0  0  0  0
  2  3  1  0  0  0  0
  2  4  1  0  0  0  0
  2  5  1  0  0  0  0
  5  6  2  0  0  0  0
  5  7  1  0  0  0  0
  6  8  1  0  0  0  0
  6 27  1  0  0  0  0
  7  9  2  0  0  0  0
  7 28  1  0  0  0  0
  8 10  2  0  0  0  0
  8 29  1  0  0  0  0
  9 10  1  0  0  0  0
  9 30  1  0  0  0  0
 10 11  1  0  0  0  0
 11 12  1  0  0  0  0
 11 31  1  0  0  0  0
 12 13  1  0  0  0  0
 12 14  2  0  0  0  0
 13 15  1  0  0  0  0
 13 16  1  0  0  0  0
 14 17  1  0  0  0  0
 14 32  1  0  0  0  0
 15 18  2  0  0  0  0
 16 19  1  0  0  0  0
 16 20  2  0  0  0  0
 17 21  1  0  0  0  0
 17 19  2  0  0  0  0
 18 22  1  0  0  0  0
 18 20  1  0  0  0  0
 21 33  1  0  0  0  0
 21 34  1  0  0  0  0
 21 35  1  0  0  0  0
 22 23  1  0  0  0  0
 22 24  1  0  0  0  0
 22 25  1  0  0  0  0
 25 26  1  0  0  0  0
 25 36  1  0  0  0  0
 25 37  1  0  0  0  0
 26 38  1  0  0  0  0
 26 39  1  0  0  0  0
 26 40  1  0  0  0  0
M  END
>  <Molecule Name>
1281808

>  <MolRegNo>
1281808

>  <m>
=

>  <Value>
19

>  <Unit>
nM

>  <Type>
IC50

>  <pIC50>
7.72

>  <Ligand Efficiency>
0.41

>  <Binding Efficiency>
20.79

>  <Surface Efficiency>
14.01

>  <Assay Index>
642520

>  <Assay Category>


>  <Assay Organism>
Plasmodium falciparum

>  <Target ID>
100588

>  <Target Name>
Dihydroorotate dehydrogenase

>  <Target Organism>
Plasmodium falciparum

>  <Target Description>
Target is a single protein chain

>  <Sequence Accession>
Q54A96

>  <Reference>
J. Med. Chem. 54 (15), 5540-5561 (2011)

>  <Pubmed ID>
21696174

>  <DOI>
10.1021/jm200592f

$$$$
Compound 21
 OpenBabel11072204193D

 37 39  0  0  0  0  0  0  0  0999 V2000
    9.9866    2.8154   -2.5847 Cl  0  0  0  0  0  0  0  0  0  0  0  0
    8.7348    1.9127   -1.8197 C   0  0  0  0  0  0  0  0  0  0  0  0
    7.5084    2.5289   -1.5427 C   0  0  0  0  0  0  0  0  0  0  0  0
    8.9569    0.5827   -1.4801 C   0  0  0  0  0  0  0  0  0  0  0  0
    6.4828    1.8339   -0.8932 C   0  0  0  0  0  0  0  0  0  0  0  0
    7.9417   -0.1363   -0.8598 C   0  0  0  0  0  0  0  0  0  0  0  0
    5.2599    2.4041   -0.4889 N   0  0  0  0  0  0  0  0  0  0  0  0
    6.7247    0.4886   -0.5630 C   0  0  0  0  0  0  0  0  0  0  0  0
    4.7979    3.7167   -0.4562 C   0  0  0  0  0  0  0  0  0  0  0  0
    3.3890    3.8802   -0.3708 N   0  0  0  0  0  0  0  0  0  0  0  0
    5.5366    4.8408   -0.4192 C   0  0  0  0  0  0  0  0  0  0  0  0
    2.4271    2.9155   -0.3166 N   0  0  0  0  0  0  0  0  0  0  0  0
    2.7907    5.1428   -0.2954 C   0  0  0  0  0  0  0  0  0  0  0  0
    4.8125    6.1491   -0.4026 C   0  0  0  0  0  0  0  0  0  0  0  0
    1.2992    3.6352   -0.1687 C   0  0  0  0  0  0  0  0  0  0  0  0
    3.5232    6.2908   -0.3402 N   0  0  0  0  0  0  0  0  0  0  0  0
    1.4905    4.9983   -0.1734 N   0  0  0  0  0  0  0  0  0  0  0  0
    5.6560    7.3990   -0.4717 C   0  0  0  0  0  0  0  0  0  0  0  0
   -0.0737    3.0241    0.0283 C   0  0  0  0  0  0  0  0  0  0  0  0
   -0.0747    1.6833   -0.2444 F   0  0  0  0  0  0  0  0  0  0  0  0
   -0.4385    3.1185    1.3455 F   0  0  0  0  0  0  0  0  0  0  0  0
   -1.1853    3.6712   -0.7964 C   0  0  0  0  0  0  0  0  0  0  0  0
   -0.9971    3.5273   -2.2995 C   0  0  0  0  0  0  0  0  0  0  0  0
    7.3710    3.5494   -1.8765 H   0  0  0  0  0  0  0  0  0  0  0  0
    9.9090    0.1060   -1.6969 H   0  0  0  0  0  0  0  0  0  0  0  0
    8.0953   -1.1804   -0.5978 H   0  0  0  0  0  0  0  0  0  0  0  0
    4.5133    1.7235   -0.3249 H   0  0  0  0  0  0  0  0  0  0  0  0
    5.9555   -0.0953   -0.0612 H   0  0  0  0  0  0  0  0  0  0  0  0
    6.6153    4.8589   -0.3831 H   0  0  0  0  0  0  0  0  0  0  0  0
    6.7168    7.1611   -0.5931 H   0  0  0  0  0  0  0  0  0  0  0  0
    5.5237    7.9762    0.4460 H   0  0  0  0  0  0  0  0  0  0  0  0
    5.3343    8.0020   -1.3262 H   0  0  0  0  0  0  0  0  0  0  0  0
   -1.2870    4.7325   -0.5369 H   0  0  0  0  0  0  0  0  0  0  0  0
   -2.1360    3.1976   -0.5233 H   0  0  0  0  0  0  0  0  0  0  0  0
   -0.1088    4.0636   -2.6453 H   0  0  0  0  0  0  0  0  0  0  0  0
   -1.8629    3.9411   -2.8271 H   0  0  0  0  0  0  0  0  0  0  0  0
   -0.9008    2.4752   -2.5855 H   0  0  0  0  0  0  0  0  0  0  0  0
  1  2  1  0  0  0  0
  2  3  2  0  0  0  0
  2  4  1  0  0  0  0
  3  5  1  0  0  0  0
  3 24  1  0  0  0  0
  4  6  2  0  0  0  0
  4 25  1  0  0  0  0
  5  7  1  0  0  0  0
  5  8  2  0  0  0  0
  6  8  1  0  0  0  0
  6 26  1  0  0  0  0
  7  9  1  0  0  0  0
  7 27  1  0  0  0  0
  8 28  1  0  0  0  0
  9 10  1  0  0  0  0
  9 11  2  0  0  0  0
 10 12  1  0  0  0  0
 10 13  1  0  0  0  0
 11 14  1  0  0  0  0
 11 29  1  0  0  0  0
 12 15  2  0  0  0  0
 13 16  1  0  0  0  0
 13 17  2  0  0  0  0
 14 18  1  0  0  0  0
 14 16  2  0  0  0  0
 15 19  1  0  0  0  0
 15 17  1  0  0  0  0
 18 30  1  0  0  0  0
 18 31  1  0  0  0  0
 18 32  1  0  0  0  0
 19 20  1  0  0  0  0
 19 21  1  0  0  0  0
 19 22  1  0  0  0  0
 22 23  1  0  0  0  0
 22 33  1  0  0  0  0
 22 34  1  0  0  0  0
 23 35  1  0  0  0  0
 23 36  1  0  0  0  0
 23 37  1  0  0  0  0
M  END
>  <Molecule Name>
1281807

>  <MolRegNo>
1281807

>  <m>
=

>  <Value>
30

>  <Unit>
nM

>  <Type>
IC50

>  <pIC50>
7.52

>  <Ligand Efficiency>
0.45

>  <Binding Efficiency>
22.27

>  <Surface Efficiency>
13.65

>  <Assay Index>
642520

>  <Assay Category>


>  <Assay Organism>
Plasmodium falciparum

>  <Target ID>
100588

>  <Target Name>
Dihydroorotate dehydrogenase

>  <Target Organism>
Plasmodium falciparum

>  <Target Description>
Target is a single protein chain

>  <Sequence Accession>
Q54A96

>  <Reference>
J. Med. Chem. 54 (15), 5540-5561 (2011)

>  <Pubmed ID>
21696174

>  <DOI>
10.1021/jm200592f

$$$$
Compound 22
 OpenBabel11072204193D

 37 39  0  0  0  0  0  0  0  0999 V2000
    3.3455    1.0464    3.9192 Cl  0  0  0  0  0  0  0  0  0  0  0  0
    4.3287    0.6881    2.5560 C   0  0  0  0  0  0  0  0  0  0  0  0
    4.8036   -0.6034    2.3685 C   0  0  0  0  0  0  0  0  0  0  0  0
    4.6562    1.6860    1.6506 C   0  0  0  0  0  0  0  0  0  0  0  0
    5.6488   -0.8799    1.2935 C   0  0  0  0  0  0  0  0  0  0  0  0
    5.5003    1.4044    0.5638 C   0  0  0  0  0  0  0  0  0  0  0  0
    6.0502    0.1241    0.3949 C   0  0  0  0  0  0  0  0  0  0  0  0
    6.9347   -0.1038   -0.7002 N   0  0  0  0  0  0  0  0  0  0  0  0
    7.6376   -1.2993   -0.8767 C   0  0  0  0  0  0  0  0  0  0  0  0
    9.0512   -1.2645   -0.9154 N   0  0  0  0  0  0  0  0  0  0  0  0
    7.0420   -2.4948   -1.0345 C   0  0  0  0  0  0  0  0  0  0  0  0
    9.8888   -0.1885   -0.9076 N   0  0  0  0  0  0  0  0  0  0  0  0
    9.8002   -2.4429   -1.0068 C   0  0  0  0  0  0  0  0  0  0  0  0
    7.9196   -3.6974   -0.9848 C   0  0  0  0  0  0  0  0  0  0  0  0
   11.1005   -0.7659   -1.0281 C   0  0  0  0  0  0  0  0  0  0  0  0
    9.2177   -3.6750   -0.9936 N   0  0  0  0  0  0  0  0  0  0  0  0
   11.0746   -2.1393   -1.0821 N   0  0  0  0  0  0  0  0  0  0  0  0
    7.2293   -5.0297   -0.8496 C   0  0  0  0  0  0  0  0  0  0  0  0
   12.4015   -0.0095   -1.1952 C   0  0  0  0  0  0  0  0  0  0  0  0
   12.2258    1.3445   -1.1383 F   0  0  0  0  0  0  0  0  0  0  0  0
   13.2627   -0.3019   -0.1707 F   0  0  0  0  0  0  0  0  0  0  0  0
   13.1159   -0.3457   -2.5066 C   0  0  0  0  0  0  0  0  0  0  0  0
   12.3078    0.0240   -3.7432 C   0  0  0  0  0  0  0  0  0  0  0  0
    4.5354   -1.3977    3.0627 H   0  0  0  0  0  0  0  0  0  0  0  0
    4.2761    2.6980    1.7816 H   0  0  0  0  0  0  0  0  0  0  0  0
    6.0090   -1.8991    1.2116 H   0  0  0  0  0  0  0  0  0  0  0  0
    5.7370    2.2001   -0.1393 H   0  0  0  0  0  0  0  0  0  0  0  0
    7.5521    0.7083   -0.8170 H   0  0  0  0  0  0  0  0  0  0  0  0
    5.9686   -2.6156   -1.0930 H   0  0  0  0  0  0  0  0  0  0  0  0
    6.1517   -4.9066   -0.7106 H   0  0  0  0  0  0  0  0  0  0  0  0
    7.6306   -5.5505    0.0254 H   0  0  0  0  0  0  0  0  0  0  0  0
    7.4119   -5.6292   -1.7446 H   0  0  0  0  0  0  0  0  0  0  0  0
   13.3669   -1.4125   -2.5384 H   0  0  0  0  0  0  0  0  0  0  0  0
   14.0693    0.1958   -2.5384 H   0  0  0  0  0  0  0  0  0  0  0  0
   11.3659   -0.5313   -3.7888 H   0  0  0  0  0  0  0  0  0  0  0  0
   12.8748   -0.2126   -4.6492 H   0  0  0  0  0  0  0  0  0  0  0  0
   12.0782    1.0939   -3.7558 H   0  0  0  0  0  0  0  0  0  0  0  0
  1  2  1  0  0  0  0
  2  3  2  0  0  0  0
  2  4  1  0  0  0  0
  3  5  1  0  0  0  0
  3 24  1  0  0  0  0
  4  6  2  0  0  0  0
  4 25  1  0  0  0  0
  5  7  2  0  0  0  0
  5 26  1  0  0  0  0
  6  7  1  0  0  0  0
  6 27  1  0  0  0  0
  7  8  1  0  0  0  0
  8  9  1  0  0  0  0
  8 28  1  0  0  0  0
  9 10  1  0  0  0  0
  9 11  2  0  0  0  0
 10 12  1  0  0  0  0
 10 13  1  0  0  0  0
 11 14  1  0  0  0  0
 11 29  1  0  0  0  0
 12 15  2  0  0  0  0
 13 16  1  0  0  0  0
 13 17  2  0  0  0  0
 14 18  1  0  0  0  0
 14 16  2  0  0  0  0
 15 19  1  0  0  0  0
 15 17  1  0  0  0  0
 18 30  1  0  0  0  0
 18 31  1  0  0  0  0
 18 32  1  0  0  0  0
 19 20  1  0  0  0  0
 19 21  1  0  0  0  0
 19 22  1  0  0  0  0
 22 23  1  0  0  0  0
 22 33  1  0  0  0  0
 22 34  1  0  0  0  0
 23 35  1  0  0  0  0
 23 36  1  0  0  0  0
 23 37  1  0  0  0  0
M  END
>  <Molecule Name>
1281806

>  <MolRegNo>
1281806

>  <m>
=

>  <Value>
34

>  <Unit>
nM

>  <Type>
IC50

>  <pIC50>
7.47

>  <Ligand Efficiency>
0.44

>  <Binding Efficiency>
22.11

>  <Surface Efficiency>
13.55

>  <Assay Index>
642520

>  <Assay Category>


>  <Assay Organism>
Plasmodium falciparum

>  <Target ID>
100588

>  <Target Name>
Dihydroorotate dehydrogenase

>  <Target Organism>
Plasmodium falciparum

>  <Target Description>
Target is a single protein chain

>  <Sequence Accession>
Q54A96

>  <Reference>
J. Med. Chem. 54 (15), 5540-5561 (2011)

>  <Pubmed ID>
21696174

>  <DOI>
10.1021/jm200592f

$$$$
Compound 23
 OpenBabel11072204193D

 37 39  0  0  0  0  0  0  0  0999 V2000
    5.7148   -0.2073    0.4265 F   0  0  0  0  0  0  0  0  0  0  0  0
    5.0424    0.7772   -0.2345 C   0  0  0  0  0  0  0  0  0  0  0  0
    4.0330    1.1610    0.5932 F   0  0  0  0  0  0  0  0  0  0  0  0
    5.9009    1.8332   -0.2958 F   0  0  0  0  0  0  0  0  0  0  0  0
    4.5565    0.3606   -1.6014 C   0  0  0  0  0  0  0  0  0  0  0  0
    4.8417   -0.9094   -2.1102 C   0  0  0  0  0  0  0  0  0  0  0  0
    3.8503    1.2606   -2.4120 C   0  0  0  0  0  0  0  0  0  0  0  0
    4.4863   -1.2451   -3.4216 C   0  0  0  0  0  0  0  0  0  0  0  0
    3.4882    0.9138   -3.7221 C   0  0  0  0  0  0  0  0  0  0  0  0
    3.8278   -0.3334   -4.2617 C   0  0  0  0  0  0  0  0  0  0  0  0
    3.4664   -0.6218   -5.6038 N   0  0  0  0  0  0  0  0  0  0  0  0
    3.4836   -1.8790   -6.2110 C   0  0  0  0  0  0  0  0  0  0  0  0
    3.8853   -1.9869   -7.5651 N   0  0  0  0  0  0  0  0  0  0  0  0
    3.0853   -3.0079   -5.5972 C   0  0  0  0  0  0  0  0  0  0  0  0
    4.2243   -1.0072   -8.4520 N   0  0  0  0  0  0  0  0  0  0  0  0
    3.9453   -3.2324   -8.2054 C   0  0  0  0  0  0  0  0  0  0  0  0
    3.3142   -4.2936   -6.3116 C   0  0  0  0  0  0  0  0  0  0  0  0
    4.4011   -1.6974   -9.5956 C   0  0  0  0  0  0  0  0  0  0  0  0
    3.7066   -4.4012   -7.5438 N   0  0  0  0  0  0  0  0  0  0  0  0
    4.2676   -3.0596   -9.4643 N   0  0  0  0  0  0  0  0  0  0  0  0
    3.1231   -5.5495   -5.4993 C   0  0  0  0  0  0  0  0  0  0  0  0
    4.6685   -1.0664  -10.9471 C   0  0  0  0  0  0  0  0  0  0  0  0
    3.4908   -0.7405  -11.5620 F   0  0  0  0  0  0  0  0  0  0  0  0
    5.3567    0.1107  -10.8300 F   0  0  0  0  0  0  0  0  0  0  0  0
    5.4504   -1.9626  -11.8946 C   0  0  0  0  0  0  0  0  0  0  0  0
    5.3708   -1.6418   -1.5011 H   0  0  0  0  0  0  0  0  0  0  0  0
    3.5932    2.2483   -2.0311 H   0  0  0  0  0  0  0  0  0  0  0  0
    4.7845   -2.2266   -3.7763 H   0  0  0  0  0  0  0  0  0  0  0  0
    2.9369    1.6349   -4.3222 H   0  0  0  0  0  0  0  0  0  0  0  0
    3.7334    0.1321   -6.2445 H   0  0  0  0  0  0  0  0  0  0  0  0
    2.6682   -3.0247   -4.6009 H   0  0  0  0  0  0  0  0  0  0  0  0
    2.9665   -5.3181   -4.4412 H   0  0  0  0  0  0  0  0  0  0  0  0
    4.0212   -6.1678   -5.5849 H   0  0  0  0  0  0  0  0  0  0  0  0
    2.2607   -6.1009   -5.8781 H   0  0  0  0  0  0  0  0  0  0  0  0
    4.9243   -2.9038  -12.0879 H   0  0  0  0  0  0  0  0  0  0  0  0
    6.4453   -2.1904  -11.4984 H   0  0  0  0  0  0  0  0  0  0  0  0
    5.5845   -1.4629  -12.8603 H   0  0  0  0  0  0  0  0  0  0  0  0
  1  2  1  0  0  0  0
  2  3  1  0  0  0  0
  2  4  1  0  0  0  0
  2  5  1  0  0  0  0
  5  6  2  0  0  0  0
  5  7  1  0  0  0  0
  6  8  1  0  0  0  0
  6 26  1  0  0  0  0
  7  9  2  0  0  0  0
  7 27  1  0  0  0  0
  8 10  2  0  0  0  0
  8 28  1  0  0  0  0
  9 10  1  0  0  0  0
  9 29  1  0  0  0  0
 10 11  1  0  0  0  0
 11 12  1  0  0  0  0
 11 30  1  0  0  0  0
 12 13  1  0  0  0  0
 12 14  2  0  0  0  0
 13 15  1  0  0  0  0
 13 16  1  0  0  0  0
 14 17  1  0  0  0  0
 14 31  1  0  0  0  0
 15 18  2  0  0  0  0
 16 19  1  0  0  0  0
 16 20  2  0  0  0  0
 17 21  1  0  0  0  0
 17 19  2  0  0  0  0
 18 22  1  0  0  0  0
 18 20  1  0  0  0  0
 21 32  1  0  0  0  0
 21 33  1  0  0  0  0
 21 34  1  0  0  0  0
 22 23  1  0  0  0  0
 22 24  1  0  0  0  0
 22 25  1  0  0  0  0
 25 35  1  0  0  0  0
 25 36  1  0  0  0  0
 25 37  1  0  0  0  0
M  END
>  <Molecule Name>
1117833

>  <MolRegNo>
1117833

>  <m>
=

>  <Value>
38

>  <Unit>
nM

>  <Type>
IC50

>  <pIC50>
7.42

>  <Ligand Efficiency>
0.41

>  <Binding Efficiency>
20.77

>  <Surface Efficiency>
13.46

>  <Assay Index>
642520

>  <Assay Category>


>  <Assay Organism>
Plasmodium falciparum

>  <Target ID>
100588

>  <Target Name>
Dihydroorotate dehydrogenase

>  <Target Organism>
Plasmodium falciparum

>  <Target Description>
Target is a single protein chain

>  <Sequence Accession>
Q54A96

>  <Reference>
J. Med. Chem. 54 (15), 5540-5561 (2011)

>  <Pubmed ID>
21696174

>  <DOI>
10.1021/jm200592f

$$$$
Compound 24
 OpenBabel11072204193D

 34 36  0  0  0  0  0  0  0  0999 V2000
    9.9463    2.7790   -2.5725 Cl  0  0  0  0  0  0  0  0  0  0  0  0
    8.6838    1.8905   -1.8083 C   0  0  0  0  0  0  0  0  0  0  0  0
    7.4597    2.5160   -1.5454 C   0  0  0  0  0  0  0  0  0  0  0  0
    8.8966    0.5633   -1.4523 C   0  0  0  0  0  0  0  0  0  0  0  0
    6.4239    1.8344   -0.8970 C   0  0  0  0  0  0  0  0  0  0  0  0
    7.8729   -0.1426   -0.8284 C   0  0  0  0  0  0  0  0  0  0  0  0
    5.2013    2.4170   -0.5081 N   0  0  0  0  0  0  0  0  0  0  0  0
    6.6569    0.4920   -0.5471 C   0  0  0  0  0  0  0  0  0  0  0  0
    4.7571    3.7355   -0.4714 C   0  0  0  0  0  0  0  0  0  0  0  0
    3.3515    3.9208   -0.3844 N   0  0  0  0  0  0  0  0  0  0  0  0
    5.5119    4.8494   -0.4406 C   0  0  0  0  0  0  0  0  0  0  0  0
    2.3735    2.9717   -0.3167 N   0  0  0  0  0  0  0  0  0  0  0  0
    2.7753    5.1920   -0.3106 C   0  0  0  0  0  0  0  0  0  0  0  0
    4.8091    6.1685   -0.4234 C   0  0  0  0  0  0  0  0  0  0  0  0
    1.2572    3.7138   -0.1805 C   0  0  0  0  0  0  0  0  0  0  0  0
    3.5224    6.3287   -0.3581 N   0  0  0  0  0  0  0  0  0  0  0  0
    1.4742    5.0709   -0.1860 N   0  0  0  0  0  0  0  0  0  0  0  0
    5.6684    7.4063   -0.4993 C   0  0  0  0  0  0  0  0  0  0  0  0
   -0.1239    3.1255    0.0144 C   0  0  0  0  0  0  0  0  0  0  0  0
   -0.3266    2.0485   -0.8043 F   0  0  0  0  0  0  0  0  0  0  0  0
   -0.2677    2.6481    1.2882 F   0  0  0  0  0  0  0  0  0  0  0  0
   -1.2546    4.1107   -0.2390 C   0  0  0  0  0  0  0  0  0  0  0  0
    7.3312    3.5338   -1.8914 H   0  0  0  0  0  0  0  0  0  0  0  0
    9.8468    0.0783   -1.6584 H   0  0  0  0  0  0  0  0  0  0  0  0
    8.0205   -1.1836   -0.5523 H   0  0  0  0  0  0  0  0  0  0  0  0
    4.4431    1.7442   -0.3621 H   0  0  0  0  0  0  0  0  0  0  0  0
    5.8827   -0.0812   -0.0400 H   0  0  0  0  0  0  0  0  0  0  0  0
    6.5908    4.8526   -0.4039 H   0  0  0  0  0  0  0  0  0  0  0  0
    6.7251    7.1564   -0.6226 H   0  0  0  0  0  0  0  0  0  0  0  0
    5.5444    7.9885    0.4179 H   0  0  0  0  0  0  0  0  0  0  0  0
    5.3500    8.0122   -1.3532 H   0  0  0  0  0  0  0  0  0  0  0  0
   -1.2664    4.4439   -1.2809 H   0  0  0  0  0  0  0  0  0  0  0  0
   -1.1798    4.9870    0.4132 H   0  0  0  0  0  0  0  0  0  0  0  0
   -2.2200    3.6340   -0.0326 H   0  0  0  0  0  0  0  0  0  0  0  0
  1  2  1  0  0  0  0
  2  3  2  0  0  0  0
  2  4  1  0  0  0  0
  3  5  1  0  0  0  0
  3 23  1  0  0  0  0
  4  6  2  0  0  0  0
  4 24  1  0  0  0  0
  5  7  1  0  0  0  0
  5  8  2  0  0  0  0
  6  8  1  0  0  0  0
  6 25  1  0  0  0  0
  7  9  1  0  0  0  0
  7 26  1  0  0  0  0
  8 27  1  0  0  0  0
  9 10  1  0  0  0  0
  9 11  2  0  0  0  0
 10 12  1  0  0  0  0
 10 13  1  0  0  0  0
 11 14  1  0  0  0  0
 11 28  1  0  0  0  0
 12 15  2  0  0  0  0
 13 16  1  0  0  0  0
 13 17  2  0  0  0  0
 14 18  1  0  0  0  0
 14 16  2  0  0  0  0
 15 19  1  0  0  0  0
 15 17  1  0  0  0  0
 18 29  1  0  0  0  0
 18 30  1  0  0  0  0
 18 31  1  0  0  0  0
 19 20  1  0  0  0  0
 19 21  1  0  0  0  0
 19 22  1  0  0  0  0
 22 32  1  0  0  0  0
 22 33  1  0  0  0  0
 22 34  1  0  0  0  0
M  END
>  <Molecule Name>
1281804

>  <MolRegNo>
1281804

>  <m>
=

>  <Value>
54

>  <Unit>
nM

>  <Type>
IC50

>  <pIC50>
7.27

>  <Ligand Efficiency>
0.45

>  <Binding Efficiency>
22.45

>  <Surface Efficiency>
13.19

>  <Assay Index>
642520

>  <Assay Category>


>  <Assay Organism>
Plasmodium falciparum

>  <Target ID>
100588

>  <Target Name>
Dihydroorotate dehydrogenase

>  <Target Organism>
Plasmodium falciparum

>  <Target Description>
Target is a single protein chain

>  <Sequence Accession>
Q54A96

>  <Reference>
J. Med. Chem. 54 (15), 5540-5561 (2011)

>  <Pubmed ID>
21696174

>  <DOI>
10.1021/jm200592f

$$$$
Compound 25
 OpenBabel11072204193D

 34 36  0  0  0  0  0  0  0  0999 V2000
    3.2891    1.1413    3.8724 Cl  0  0  0  0  0  0  0  0  0  0  0  0
    4.2707    0.7692    2.5126 C   0  0  0  0  0  0  0  0  0  0  0  0
    4.7398   -0.5257    2.3339 C   0  0  0  0  0  0  0  0  0  0  0  0
    4.6081    1.7626    1.5964 C   0  0  0  0  0  0  0  0  0  0  0  0
    5.5839   -0.8140    1.2619 C   0  0  0  0  0  0  0  0  0  0  0  0
    5.4493    1.4651    0.5151 C   0  0  0  0  0  0  0  0  0  0  0  0
    5.9922    0.1795    0.3548 C   0  0  0  0  0  0  0  0  0  0  0  0
    6.8761   -0.0579   -0.7375 N   0  0  0  0  0  0  0  0  0  0  0  0
    7.5750   -1.2529   -0.9145 C   0  0  0  0  0  0  0  0  0  0  0  0
    8.9890   -1.2217   -0.9624 N   0  0  0  0  0  0  0  0  0  0  0  0
    6.9794   -2.4512   -1.0629 C   0  0  0  0  0  0  0  0  0  0  0  0
    9.8286   -0.1463   -0.9464 N   0  0  0  0  0  0  0  0  0  0  0  0
    9.7373   -2.4002   -1.0560 C   0  0  0  0  0  0  0  0  0  0  0  0
    7.8577   -3.6551   -1.0227 C   0  0  0  0  0  0  0  0  0  0  0  0
   11.0396   -0.7223   -1.0812 C   0  0  0  0  0  0  0  0  0  0  0  0
    9.1551   -3.6320   -1.0361 N   0  0  0  0  0  0  0  0  0  0  0  0
   11.0109   -2.0977   -1.1285 N   0  0  0  0  0  0  0  0  0  0  0  0
    7.1694   -4.9891   -0.8894 C   0  0  0  0  0  0  0  0  0  0  0  0
   12.3389    0.0419   -1.2353 C   0  0  0  0  0  0  0  0  0  0  0  0
   12.5610    0.3415   -2.5512 F   0  0  0  0  0  0  0  0  0  0  0  0
   12.2998    1.2454   -0.5882 F   0  0  0  0  0  0  0  0  0  0  0  0
   13.5533   -0.7162   -0.7230 C   0  0  0  0  0  0  0  0  0  0  0  0
    4.4671   -1.3123    3.0318 H   0  0  0  0  0  0  0  0  0  0  0  0
    4.2294    2.7743    1.7213 H   0  0  0  0  0  0  0  0  0  0  0  0
    5.9375   -1.8373    1.1832 H   0  0  0  0  0  0  0  0  0  0  0  0
    5.6906    2.2542   -0.1923 H   0  0  0  0  0  0  0  0  0  0  0  0
    7.4939    0.7509   -0.8646 H   0  0  0  0  0  0  0  0  0  0  0  0
    5.9040   -2.5745   -1.1140 H   0  0  0  0  0  0  0  0  0  0  0  0
    6.0911   -4.8686   -0.7516 H   0  0  0  0  0  0  0  0  0  0  0  0
    7.5711   -5.5106   -0.0142 H   0  0  0  0  0  0  0  0  0  0  0  0
    7.3550   -5.5871   -1.7853 H   0  0  0  0  0  0  0  0  0  0  0  0
   13.6816   -1.6723   -1.2418 H   0  0  0  0  0  0  0  0  0  0  0  0
   13.4804   -0.9063    0.3527 H   0  0  0  0  0  0  0  0  0  0  0  0
   14.4628   -0.1300   -0.8953 H   0  0  0  0  0  0  0  0  0  0  0  0
  1  2  1  0  0  0  0
  2  3  2  0  0  0  0
  2  4  1  0  0  0  0
  3  5  1  0  0  0  0
  3 23  1  0  0  0  0
  4  6  2  0  0  0  0
  4 24  1  0  0  0  0
  5  7  2  0  0  0  0
  5 25  1  0  0  0  0
  6  7  1  0  0  0  0
  6 26  1  0  0  0  0
  7  8  1  0  0  0  0
  8  9  1  0  0  0  0
  8 27  1  0  0  0  0
  9 10  1  0  0  0  0
  9 11  2  0  0  0  0
 10 12  1  0  0  0  0
 10 13  1  0  0  0  0
 11 14  1  0  0  0  0
 11 28  1  0  0  0  0
 12 15  2  0  0  0  0
 13 16  1  0  0  0  0
 13 17  2  0  0  0  0
 14 18  1  0  0  0  0
 14 16  2  0  0  0  0
 15 19  1  0  0  0  0
 15 17  1  0  0  0  0
 18 29  1  0  0  0  0
 18 30  1  0  0  0  0
 18 31  1  0  0  0  0
 19 20  1  0  0  0  0
 19 21  1  0  0  0  0
 19 22  1  0  0  0  0
 22 32  1  0  0  0  0
 22 33  1  0  0  0  0
 22 34  1  0  0  0  0
M  END
>  <Molecule Name>
1281803

>  <MolRegNo>
1281803

>  <m>
=

>  <Value>
38

>  <Unit>
nM

>  <Type>
IC50

>  <pIC50>
7.42

>  <Ligand Efficiency>
0.46

>  <Binding Efficiency>
22.92

>  <Surface Efficiency>
13.46

>  <Assay Index>
642520

>  <Assay Category>


>  <Assay Organism>
Plasmodium falciparum

>  <Target ID>
100588

>  <Target Name>
Dihydroorotate dehydrogenase

>  <Target Organism>
Plasmodium falciparum

>  <Target Description>
Target is a single protein chain

>  <Sequence Accession>
Q54A96

>  <Reference>
J. Med. Chem. 54 (15), 5540-5561 (2011)

>  <Pubmed ID>
21696174

>  <DOI>
10.1021/jm200592f

$$$$
Compound 26
 OpenBabel11072204193D

 41 44  0  0  0  0  0  0  0  0999 V2000
    7.9806   -0.3143   -0.9488 F   0  0  0  0  0  0  0  0  0  0  0  0
    7.3142    0.7551   -1.4689 C   0  0  0  0  0  0  0  0  0  0  0  0
    6.8335    1.4507   -0.4031 F   0  0  0  0  0  0  0  0  0  0  0  0
    8.2694    1.5450   -2.0342 F   0  0  0  0  0  0  0  0  0  0  0  0
    6.2373    0.3720   -2.4538 C   0  0  0  0  0  0  0  0  0  0  0  0
    6.0245   -0.9648   -2.7980 C   0  0  0  0  0  0  0  0  0  0  0  0
    5.4553    1.3540   -3.0778 C   0  0  0  0  0  0  0  0  0  0  0  0
    5.1121   -1.3021   -3.8019 C   0  0  0  0  0  0  0  0  0  0  0  0
    4.5354    1.0082   -4.0775 C   0  0  0  0  0  0  0  0  0  0  0  0
    4.3963   -0.3198   -4.5021 C   0  0  0  0  0  0  0  0  0  0  0  0
    3.5077   -0.6061   -5.5812 N   0  0  0  0  0  0  0  0  0  0  0  0
    3.4434   -1.8537   -6.2059 C   0  0  0  0  0  0  0  0  0  0  0  0
    3.7465   -1.9415   -7.5857 N   0  0  0  0  0  0  0  0  0  0  0  0
    3.0895   -2.9882   -5.5759 C   0  0  0  0  0  0  0  0  0  0  0  0
    4.0441   -0.9453   -8.4728 N   0  0  0  0  0  0  0  0  0  0  0  0
    3.7704   -3.1778   -8.2458 C   0  0  0  0  0  0  0  0  0  0  0  0
    3.2621   -4.2639   -6.3275 C   0  0  0  0  0  0  0  0  0  0  0  0
    4.1983   -1.6306   -9.6152 C   0  0  0  0  0  0  0  0  0  0  0  0
    3.5619   -4.3554   -7.5866 N   0  0  0  0  0  0  0  0  0  0  0  0
    4.0511   -2.9857   -9.5127 N   0  0  0  0  0  0  0  0  0  0  0  0
    3.1203   -5.5418   -5.5394 C   0  0  0  0  0  0  0  0  0  0  0  0
    4.5397   -1.0054  -10.9286 C   0  0  0  0  0  0  0  0  0  0  0  0
    3.3664   -0.5370  -11.7535 C   0  0  0  0  0  0  0  0  0  0  0  0
    2.2741   -1.4810  -12.1994 C   0  0  0  0  0  0  0  0  0  0  0  0
    3.2545   -0.9484  -13.2045 C   0  0  0  0  0  0  0  0  0  0  0  0
    6.5903   -1.7585   -2.3112 H   0  0  0  0  0  0  0  0  0  0  0  0
    5.5774    2.4013   -2.8053 H   0  0  0  0  0  0  0  0  0  0  0  0
    5.0248   -2.3554   -4.0427 H   0  0  0  0  0  0  0  0  0  0  0  0
    3.9491    1.7963   -4.5454 H   0  0  0  0  0  0  0  0  0  0  0  0
    3.5807    0.1413   -6.2814 H   0  0  0  0  0  0  0  0  0  0  0  0
    2.7704   -3.0154   -4.5431 H   0  0  0  0  0  0  0  0  0  0  0  0
    2.9791   -5.3369   -4.4744 H   0  0  0  0  0  0  0  0  0  0  0  0
    4.0316   -6.1369   -5.6573 H   0  0  0  0  0  0  0  0  0  0  0  0
    2.2667   -6.1110   -5.9141 H   0  0  0  0  0  0  0  0  0  0  0  0
    5.1286   -1.7303  -11.5066 H   0  0  0  0  0  0  0  0  0  0  0  0
    5.2081   -0.1504  -10.7633 H   0  0  0  0  0  0  0  0  0  0  0  0
    3.0630    0.4679  -11.4806 H   0  0  0  0  0  0  0  0  0  0  0  0
    1.2589   -1.1010  -12.2356 H   0  0  0  0  0  0  0  0  0  0  0  0
    2.3422   -2.5275  -11.9227 H   0  0  0  0  0  0  0  0  0  0  0  0
    3.9679   -1.6546  -13.6160 H   0  0  0  0  0  0  0  0  0  0  0  0
    2.9025   -0.2134  -13.9192 H   0  0  0  0  0  0  0  0  0  0  0  0
  1  2  1  0  0  0  0
  2  3  1  0  0  0  0
  2  4  1  0  0  0  0
  2  5  1  0  0  0  0
  5  6  2  0  0  0  0
  5  7  1  0  0  0  0
  6  8  1  0  0  0  0
  6 26  1  0  0  0  0
  7  9  2  0  0  0  0
  7 27  1  0  0  0  0
  8 10  2  0  0  0  0
  8 28  1  0  0  0  0
  9 10  1  0  0  0  0
  9 29  1  0  0  0  0
 10 11  1  0  0  0  0
 11 12  1  0  0  0  0
 11 30  1  0  0  0  0
 12 13  1  0  0  0  0
 12 14  2  0  0  0  0
 13 15  1  0  0  0  0
 13 16  1  0  0  0  0
 14 17  1  0  0  0  0
 14 31  1  0  0  0  0
 15 18  2  0  0  0  0
 16 19  1  0  0  0  0
 16 20  2  0  0  0  0
 17 21  1  0  0  0  0
 17 19  2  0  0  0  0
 18 22  1  0  0  0  0
 18 20  1  0  0  0  0
 21 32  1  0  0  0  0
 21 33  1  0  0  0  0
 21 34  1  0  0  0  0
 22 23  1  0  0  0  0
 22 35  1  0  0  0  0
 22 36  1  0  0  0  0
 23 24  1  0  0  0  0
 23 25  1  0  0  0  0
 23 37  1  0  0  0  0
 24 25  1  0  0  0  0
 24 38  1  0  0  0  0
 24 39  1  0  0  0  0
 25 40  1  0  0  0  0
 25 41  1  0  0  0  0
M  END
>  <Molecule Name>
1281801

>  <MolRegNo>
1281801

>  <m>
=

>  <Value>
1700

>  <Unit>
nM

>  <Type>
IC50

>  <pIC50>
5.77

>  <Ligand Efficiency>
0.32

>  <Binding Efficiency>
16.61

>  <Surface Efficiency>
10.47

>  <Assay Index>
642520

>  <Assay Category>


>  <Assay Organism>
Plasmodium falciparum

>  <Target ID>
100588

>  <Target Name>
Dihydroorotate dehydrogenase

>  <Target Organism>
Plasmodium falciparum

>  <Target Description>
Target is a single protein chain

>  <Sequence Accession>
Q54A96

>  <Reference>
J. Med. Chem. 54 (15), 5540-5561 (2011)

>  <Pubmed ID>
21696174

>  <DOI>
10.1021/jm200592f

$$$$
Compound 27
 OpenBabel11072204193D

 38 41  0  0  0  0  0  0  0  0999 V2000
    3.4567    1.1765    4.0450 Cl  0  0  0  0  0  0  0  0  0  0  0  0
    4.3791    0.7929    2.6435 C   0  0  0  0  0  0  0  0  0  0  0  0
    4.8290   -0.5047    2.4520 C   0  0  0  0  0  0  0  0  0  0  0  0
    4.6790    1.7820    1.7119 C   0  0  0  0  0  0  0  0  0  0  0  0
    5.6223   -0.8050    1.3397 C   0  0  0  0  0  0  0  0  0  0  0  0
    5.4680    1.4744    0.5957 C   0  0  0  0  0  0  0  0  0  0  0  0
    5.9928    0.1857    0.4154 C   0  0  0  0  0  0  0  0  0  0  0  0
    6.8203   -0.0615   -0.7181 N   0  0  0  0  0  0  0  0  0  0  0  0
    7.5265   -1.2537   -0.9054 C   0  0  0  0  0  0  0  0  0  0  0  0
    8.9380   -1.1990   -0.9785 N   0  0  0  0  0  0  0  0  0  0  0  0
    6.9427   -2.4563   -1.0388 C   0  0  0  0  0  0  0  0  0  0  0  0
    9.7571   -0.1119   -0.9526 N   0  0  0  0  0  0  0  0  0  0  0  0
    9.7050   -2.3637   -1.1023 C   0  0  0  0  0  0  0  0  0  0  0  0
    7.8417   -3.6471   -1.0283 C   0  0  0  0  0  0  0  0  0  0  0  0
   10.9684   -0.6707   -1.0808 C   0  0  0  0  0  0  0  0  0  0  0  0
    9.1394   -3.6041   -1.0827 N   0  0  0  0  0  0  0  0  0  0  0  0
   10.9763   -2.0329   -1.1750 N   0  0  0  0  0  0  0  0  0  0  0  0
    7.1748   -4.9889   -0.8720 C   0  0  0  0  0  0  0  0  0  0  0  0
   12.2303    0.1273   -1.1425 C   0  0  0  0  0  0  0  0  0  0  0  0
   12.8480    0.4632    0.1898 C   0  0  0  0  0  0  0  0  0  0  0  0
   14.1592    1.2102    0.2126 C   0  0  0  0  0  0  0  0  0  0  0  0
   14.1030   -0.2120    0.6919 C   0  0  0  0  0  0  0  0  0  0  0  0
    4.5850   -1.2892    3.1640 H   0  0  0  0  0  0  0  0  0  0  0  0
    4.3121    2.7954    1.8503 H   0  0  0  0  0  0  0  0  0  0  0  0
    5.9640   -1.8295    1.2478 H   0  0  0  0  0  0  0  0  0  0  0  0
    5.6823    2.2602   -0.1260 H   0  0  0  0  0  0  0  0  0  0  0  0
    7.4325    0.7478   -0.8733 H   0  0  0  0  0  0  0  0  0  0  0  0
    5.8699   -2.5930   -1.0630 H   0  0  0  0  0  0  0  0  0  0  0  0
    6.0972   -4.8835   -0.7153 H   0  0  0  0  0  0  0  0  0  0  0  0
    7.5984   -5.4973    0.0002 H   0  0  0  0  0  0  0  0  0  0  0  0
    7.3505   -5.5927   -1.7649 H   0  0  0  0  0  0  0  0  0  0  0  0
   12.0178    1.0690   -1.6650 H   0  0  0  0  0  0  0  0  0  0  0  0
   12.9526   -0.4109   -1.7690 H   0  0  0  0  0  0  0  0  0  0  0  0
   12.1030    0.7501    0.9248 H   0  0  0  0  0  0  0  0  0  0  0  0
   14.2709    2.0009    0.9458 H   0  0  0  0  0  0  0  0  0  0  0  0
   14.6705    1.4025   -0.7247 H   0  0  0  0  0  0  0  0  0  0  0  0
   14.5747   -0.9740    0.0817 H   0  0  0  0  0  0  0  0  0  0  0  0
   14.1998   -0.3842    1.7592 H   0  0  0  0  0  0  0  0  0  0  0  0
  1  2  1  0  0  0  0
  2  3  2  0  0  0  0
  2  4  1  0  0  0  0
  3  5  1  0  0  0  0
  3 23  1  0  0  0  0
  4  6  2  0  0  0  0
  4 24  1  0  0  0  0
  5  7  2  0  0  0  0
  5 25  1  0  0  0  0
  6  7  1  0  0  0  0
  6 26  1  0  0  0  0
  7  8  1  0  0  0  0
  8  9  1  0  0  0  0
  8 27  1  0  0  0  0
  9 10  1  0  0  0  0
  9 11  2  0  0  0  0
 10 12  1  0  0  0  0
 10 13  1  0  0  0  0
 11 14  1  0  0  0  0
 11 28  1  0  0  0  0
 12 15  2  0  0  0  0
 13 16  1  0  0  0  0
 13 17  2  0  0  0  0
 14 18  1  0  0  0  0
 14 16  2  0  0  0  0
 15 19  1  0  0  0  0
 15 17  1  0  0  0  0
 18 29  1  0  0  0  0
 18 30  1  0  0  0  0
 18 31  1  0  0  0  0
 19 20  1  0  0  0  0
 19 32  1  0  0  0  0
 19 33  1  0  0  0  0
 20 21  1  0  0  0  0
 20 22  1  0  0  0  0
 20 34  1  0  0  0  0
 21 22  1  0  0  0  0
 21 35  1  0  0  0  0
 21 36  1  0  0  0  0
 22 37  1  0  0  0  0
 22 38  1  0  0  0  0
M  END
>  <Molecule Name>
1281799

>  <MolRegNo>
1281799

>  <m>
=

>  <Value>
12000

>  <Unit>
nM

>  <Type>
IC50

>  <pIC50>
4.92

>  <Ligand Efficiency>
0.31

>  <Binding Efficiency>
15.68

>  <Surface Efficiency>
8.93

>  <Assay Index>
642520

>  <Assay Category>


>  <Assay Organism>
Plasmodium falciparum

>  <Target ID>
100588

>  <Target Name>
Dihydroorotate dehydrogenase

>  <Target Organism>
Plasmodium falciparum

>  <Target Description>
Target is a single protein chain

>  <Sequence Accession>
Q54A96

>  <Reference>
J. Med. Chem. 54 (15), 5540-5561 (2011)

>  <Pubmed ID>
21696174

>  <DOI>
10.1021/jm200592f

$$$$
Compound 28
 OpenBabel11072204193D

 38 41  0  0  0  0  0  0  0  0999 V2000
    5.5200   -0.0011    0.2732 F   0  0  0  0  0  0  0  0  0  0  0  0
    4.6971    1.0873    0.2625 C   0  0  0  0  0  0  0  0  0  0  0  0
    3.7081    0.8142    1.1566 F   0  0  0  0  0  0  0  0  0  0  0  0
    5.4248    2.1026    0.8048 F   0  0  0  0  0  0  0  0  0  0  0  0
    4.1735    1.4318   -1.1106 C   0  0  0  0  0  0  0  0  0  0  0  0
    4.5550    0.6890   -2.2312 C   0  0  0  0  0  0  0  0  0  0  0  0
    3.3378    2.5419   -1.2999 C   0  0  0  0  0  0  0  0  0  0  0  0
    4.1737    1.0944   -3.5146 C   0  0  0  0  0  0  0  0  0  0  0  0
    2.9504    2.9374   -2.5895 C   0  0  0  0  0  0  0  0  0  0  0  0
    3.3910    2.2410   -3.7223 C   0  0  0  0  0  0  0  0  0  0  0  0
    3.0185    2.7106   -5.0108 N   0  0  0  0  0  0  0  0  0  0  0  0
    3.1456    1.9914   -6.2030 C   0  0  0  0  0  0  0  0  0  0  0  0
    3.5871    2.6530   -7.3777 N   0  0  0  0  0  0  0  0  0  0  0  0
    2.8242    0.6882   -6.3118 C   0  0  0  0  0  0  0  0  0  0  0  0
    3.8672    3.9751   -7.5892 N   0  0  0  0  0  0  0  0  0  0  0  0
    3.7752    1.9431   -8.5726 C   0  0  0  0  0  0  0  0  0  0  0  0
    3.1531    0.0050   -7.5907 C   0  0  0  0  0  0  0  0  0  0  0  0
    4.1927    3.9867   -8.8918 C   0  0  0  0  0  0  0  0  0  0  0  0
    3.5876    0.5959   -8.6604 N   0  0  0  0  0  0  0  0  0  0  0  0
    4.1650    2.7733   -9.5088 N   0  0  0  0  0  0  0  0  0  0  0  0
    3.0026   -1.4944   -7.6141 C   0  0  0  0  0  0  0  0  0  0  0  0
    4.5642    5.2153   -9.7084 C   0  0  0  0  0  0  0  0  0  0  0  0
    5.2226    6.4074   -9.0539 C   0  0  0  0  0  0  0  0  0  0  0  0
    3.8053    6.5089   -9.5025 C   0  0  0  0  0  0  0  0  0  0  0  0
    5.1826   -0.1945   -2.1205 H   0  0  0  0  0  0  0  0  0  0  0  0
    3.0012    3.1209   -0.4409 H   0  0  0  0  0  0  0  0  0  0  0  0
    4.5501    0.5096   -4.3485 H   0  0  0  0  0  0  0  0  0  0  0  0
    2.3016    3.8034   -2.7010 H   0  0  0  0  0  0  0  0  0  0  0  0
    3.2353    3.7050   -5.1297 H   0  0  0  0  0  0  0  0  0  0  0  0
    2.4040    0.1122   -5.4988 H   0  0  0  0  0  0  0  0  0  0  0  0
    2.7771   -1.8871   -6.6187 H   0  0  0  0  0  0  0  0  0  0  0  0
    3.9400   -1.9423   -7.9568 H   0  0  0  0  0  0  0  0  0  0  0  0
    2.1979   -1.7686   -8.3005 H   0  0  0  0  0  0  0  0  0  0  0  0
    4.8445    4.9824  -10.7308 H   0  0  0  0  0  0  0  0  0  0  0  0
    5.9775    6.9364   -9.6288 H   0  0  0  0  0  0  0  0  0  0  0  0
    5.4197    6.3779   -7.9898 H   0  0  0  0  0  0  0  0  0  0  0  0
    3.0280    6.5407   -8.7488 H   0  0  0  0  0  0  0  0  0  0  0  0
    3.5874    7.0999  -10.3861 H   0  0  0  0  0  0  0  0  0  0  0  0
  1  2  1  0  0  0  0
  2  3  1  0  0  0  0
  2  4  1  0  0  0  0
  2  5  1  0  0  0  0
  5  6  2  0  0  0  0
  5  7  1  0  0  0  0
  6  8  1  0  0  0  0
  6 25  1  0  0  0  0
  7  9  2  0  0  0  0
  7 26  1  0  0  0  0
  8 10  2  0  0  0  0
  8 27  1  0  0  0  0
  9 10  1  0  0  0  0
  9 28  1  0  0  0  0
 10 11  1  0  0  0  0
 11 12  1  0  0  0  0
 11 29  1  0  0  0  0
 12 13  1  0  0  0  0
 12 14  2  0  0  0  0
 13 15  1  0  0  0  0
 13 16  1  0  0  0  0
 14 17  1  0  0  0  0
 14 30  1  0  0  0  0
 15 18  2  0  0  0  0
 16 19  1  0  0  0  0
 16 20  2  0  0  0  0
 17 21  1  0  0  0  0
 17 19  2  0  0  0  0
 18 22  1  0  0  0  0
 18 20  1  0  0  0  0
 21 31  1  0  0  0  0
 21 32  1  0  0  0  0
 21 33  1  0  0  0  0
 22 23  1  0  0  0  0
 22 24  1  0  0  0  0
 22 34  1  0  0  0  0
 23 24  1  0  0  0  0
 23 35  1  0  0  0  0
 23 36  1  0  0  0  0
 24 37  1  0  0  0  0
 24 38  1  0  0  0  0
M  END
>  <Molecule Name>
1281797

>  <MolRegNo>
1281797

>  <m>
=

>  <Value>
140

>  <Unit>
nM

>  <Type>
IC50

>  <pIC50>
6.85

>  <Ligand Efficiency>
0.39

>  <Binding Efficiency>
20.56

>  <Surface Efficiency>
12.44

>  <Assay Index>
642520

>  <Assay Category>


>  <Assay Organism>
Plasmodium falciparum

>  <Target ID>
100588

>  <Target Name>
Dihydroorotate dehydrogenase

>  <Target Organism>
Plasmodium falciparum

>  <Target Description>
Target is a single protein chain

>  <Sequence Accession>
Q54A96

>  <Reference>
J. Med. Chem. 54 (15), 5540-5561 (2011)

>  <Pubmed ID>
21696174

>  <DOI>
10.1021/jm200592f

$$$$
Compound 29
 OpenBabel11072204193D

 35 38  0  0  0  0  0  0  0  0999 V2000
    9.4580    3.1574   -3.5246 Cl  0  0  0  0  0  0  0  0  0  0  0  0
    8.5705    2.3517   -2.2908 C   0  0  0  0  0  0  0  0  0  0  0  0
    7.2406    2.7044   -2.0547 C   0  0  0  0  0  0  0  0  0  0  0  0
    9.1813    1.3617   -1.5258 C   0  0  0  0  0  0  0  0  0  0  0  0
    6.4997    2.0686   -1.0517 C   0  0  0  0  0  0  0  0  0  0  0  0
    8.4545    0.7140   -0.5306 C   0  0  0  0  0  0  0  0  0  0  0  0
    5.1983    2.4811   -0.7229 N   0  0  0  0  0  0  0  0  0  0  0  0
    7.1202    1.0605   -0.3018 C   0  0  0  0  0  0  0  0  0  0  0  0
    4.7079    3.7777   -0.6090 C   0  0  0  0  0  0  0  0  0  0  0  0
    3.3076    3.9242   -0.4810 N   0  0  0  0  0  0  0  0  0  0  0  0
    5.4503    4.8977   -0.5276 C   0  0  0  0  0  0  0  0  0  0  0  0
    2.3471    2.9604   -0.5107 N   0  0  0  0  0  0  0  0  0  0  0  0
    2.7171    5.1705   -0.2451 C   0  0  0  0  0  0  0  0  0  0  0  0
    4.7275    6.1972   -0.3887 C   0  0  0  0  0  0  0  0  0  0  0  0
    1.2516    3.6575   -0.1980 C   0  0  0  0  0  0  0  0  0  0  0  0
    3.4436    6.3245   -0.2407 N   0  0  0  0  0  0  0  0  0  0  0  0
    1.4346    4.9983   -0.0201 N   0  0  0  0  0  0  0  0  0  0  0  0
    5.5621    7.4532   -0.4371 C   0  0  0  0  0  0  0  0  0  0  0  0
   -0.0912    2.9763    0.0106 C   0  0  0  0  0  0  0  0  0  0  0  0
   -1.3684    3.7903    0.0160 C   0  0  0  0  0  0  0  0  0  0  0  0
   -0.8179    3.2818    1.3053 C   0  0  0  0  0  0  0  0  0  0  0  0
    6.7761    3.4668   -2.6742 H   0  0  0  0  0  0  0  0  0  0  0  0
   10.2238    1.1006   -1.6973 H   0  0  0  0  0  0  0  0  0  0  0  0
    8.9290   -0.0537    0.0747 H   0  0  0  0  0  0  0  0  0  0  0  0
    4.5346    1.7505   -0.4605 H   0  0  0  0  0  0  0  0  0  0  0  0
    6.5762    0.5638    0.5008 H   0  0  0  0  0  0  0  0  0  0  0  0
    6.5323    4.9051   -0.5385 H   0  0  0  0  0  0  0  0  0  0  0  0
    6.6224    7.2273   -0.5765 H   0  0  0  0  0  0  0  0  0  0  0  0
    5.4368    8.0103    0.4954 H   0  0  0  0  0  0  0  0  0  0  0  0
    5.2236    8.0727   -1.2729 H   0  0  0  0  0  0  0  0  0  0  0  0
   -0.1329    1.9457   -0.3227 H   0  0  0  0  0  0  0  0  0  0  0  0
   -2.2728    3.3287   -0.3617 H   0  0  0  0  0  0  0  0  0  0  0  0
   -1.3111    4.8588   -0.1647 H   0  0  0  0  0  0  0  0  0  0  0  0
   -0.3705    3.9966    1.9878 H   0  0  0  0  0  0  0  0  0  0  0  0
   -1.3165    2.4547    1.7960 H   0  0  0  0  0  0  0  0  0  0  0  0
  1  2  1  0  0  0  0
  2  3  2  0  0  0  0
  2  4  1  0  0  0  0
  3  5  1  0  0  0  0
  3 22  1  0  0  0  0
  4  6  2  0  0  0  0
  4 23  1  0  0  0  0
  5  7  1  0  0  0  0
  5  8  2  0  0  0  0
  6  8  1  0  0  0  0
  6 24  1  0  0  0  0
  7  9  1  0  0  0  0
  7 25  1  0  0  0  0
  8 26  1  0  0  0  0
  9 10  1  0  0  0  0
  9 11  2  0  0  0  0
 10 12  1  0  0  0  0
 10 13  1  0  0  0  0
 11 14  1  0  0  0  0
 11 27  1  0  0  0  0
 12 15  2  0  0  0  0
 13 16  1  0  0  0  0
 13 17  2  0  0  0  0
 14 18  1  0  0  0  0
 14 16  2  0  0  0  0
 15 19  1  0  0  0  0
 15 17  1  0  0  0  0
 18 28  1  0  0  0  0
 18 29  1  0  0  0  0
 18 30  1  0  0  0  0
 19 20  1  0  0  0  0
 19 21  1  0  0  0  0
 19 31  1  0  0  0  0
 20 21  1  0  0  0  0
 20 32  1  0  0  0  0
 20 33  1  0  0  0  0
 21 34  1  0  0  0  0
 21 35  1  0  0  0  0
M  END
>  <Molecule Name>
1281796

>  <MolRegNo>
1281796

>  <m>
=

>  <Value>
820

>  <Unit>
nM

>  <Type>
IC50

>  <pIC50>
6.09

>  <Ligand Efficiency>
0.4

>  <Binding Efficiency>
20.3

>  <Surface Efficiency>
11.04

>  <Assay Index>
642520

>  <Assay Category>


>  <Assay Organism>
Plasmodium falciparum

>  <Target ID>
100588

>  <Target Name>
Dihydroorotate dehydrogenase

>  <Target Organism>
Plasmodium falciparum

>  <Target Description>
Target is a single protein chain

>  <Sequence Accession>
Q54A96

>  <Reference>
J. Med. Chem. 54 (15), 5540-5561 (2011)

>  <Pubmed ID>
21696174

>  <DOI>
10.1021/jm200592f

$$$$
Compound 30
 OpenBabel11072204193D

 35 38  0  0  0  0  0  0  0  0999 V2000
    3.6342    1.1615    4.0292 Cl  0  0  0  0  0  0  0  0  0  0  0  0
    4.5176    0.7774    2.6066 C   0  0  0  0  0  0  0  0  0  0  0  0
    4.9910   -0.5132    2.4188 C   0  0  0  0  0  0  0  0  0  0  0  0
    4.7697    1.7565    1.6487 C   0  0  0  0  0  0  0  0  0  0  0  0
    5.7665   -0.8103    1.2928 C   0  0  0  0  0  0  0  0  0  0  0  0
    5.5409    1.4512    0.5178 C   0  0  0  0  0  0  0  0  0  0  0  0
    6.1023    0.1773    0.3489 C   0  0  0  0  0  0  0  0  0  0  0  0
    6.9310   -0.0703   -0.7847 N   0  0  0  0  0  0  0  0  0  0  0  0
    7.6375   -1.2629   -0.9640 C   0  0  0  0  0  0  0  0  0  0  0  0
    9.0573   -1.2449   -1.0174 N   0  0  0  0  0  0  0  0  0  0  0  0
    7.0244   -2.4607   -1.0832 C   0  0  0  0  0  0  0  0  0  0  0  0
    9.9235   -0.1866   -1.0593 N   0  0  0  0  0  0  0  0  0  0  0  0
    9.7827   -2.4422   -1.0486 C   0  0  0  0  0  0  0  0  0  0  0  0
    7.8862   -3.6696   -1.0110 C   0  0  0  0  0  0  0  0  0  0  0  0
   11.1094   -0.8081   -1.1261 C   0  0  0  0  0  0  0  0  0  0  0  0
    9.1819   -3.6641   -1.0055 N   0  0  0  0  0  0  0  0  0  0  0  0
   11.0610   -2.1691   -1.0893 N   0  0  0  0  0  0  0  0  0  0  0  0
    7.1849   -4.9973   -0.8684 C   0  0  0  0  0  0  0  0  0  0  0  0
   12.4728   -0.1443   -1.2837 C   0  0  0  0  0  0  0  0  0  0  0  0
   12.7487    1.2463   -0.7644 C   0  0  0  0  0  0  0  0  0  0  0  0
   12.6129    1.0256   -2.2337 C   0  0  0  0  0  0  0  0  0  0  0  0
    4.7836   -1.2926    3.1470 H   0  0  0  0  0  0  0  0  0  0  0  0
    4.3798    2.7623    1.7833 H   0  0  0  0  0  0  0  0  0  0  0  0
    6.1295   -1.8266    1.2130 H   0  0  0  0  0  0  0  0  0  0  0  0
    5.7164    2.2317   -0.2202 H   0  0  0  0  0  0  0  0  0  0  0  0
    7.5420    0.7414   -0.9480 H   0  0  0  0  0  0  0  0  0  0  0  0
    5.9477   -2.5695   -1.1107 H   0  0  0  0  0  0  0  0  0  0  0  0
    6.1084   -4.8686   -0.7328 H   0  0  0  0  0  0  0  0  0  0  0  0
    7.5835   -5.5174    0.0099 H   0  0  0  0  0  0  0  0  0  0  0  0
    7.3688   -5.6020   -1.7600 H   0  0  0  0  0  0  0  0  0  0  0  0
   13.2958   -0.8535   -1.2718 H   0  0  0  0  0  0  0  0  0  0  0  0
   13.7416    1.4420   -0.3719 H   0  0  0  0  0  0  0  0  0  0  0  0
   11.9578    1.7804   -0.2531 H   0  0  0  0  0  0  0  0  0  0  0  0
   11.7269    1.4047   -2.7278 H   0  0  0  0  0  0  0  0  0  0  0  0
   13.5063    1.0492   -2.8490 H   0  0  0  0  0  0  0  0  0  0  0  0
  1  2  1  0  0  0  0
  2  3  2  0  0  0  0
  2  4  1  0  0  0  0
  3  5  1  0  0  0  0
  3 22  1  0  0  0  0
  4  6  2  0  0  0  0
  4 23  1  0  0  0  0
  5  7  2  0  0  0  0
  5 24  1  0  0  0  0
  6  7  1  0  0  0  0
  6 25  1  0  0  0  0
  7  8  1  0  0  0  0
  8  9  1  0  0  0  0
  8 26  1  0  0  0  0
  9 10  1  0  0  0  0
  9 11  2  0  0  0  0
 10 12  1  0  0  0  0
 10 13  1  0  0  0  0
 11 14  1  0  0  0  0
 11 27  1  0  0  0  0
 12 15  2  0  0  0  0
 13 16  1  0  0  0  0
 13 17  2  0  0  0  0
 14 18  1  0  0  0  0
 14 16  2  0  0  0  0
 15 19  1  0  0  0  0
 15 17  1  0  0  0  0
 18 28  1  0  0  0  0
 18 29  1  0  0  0  0
 18 30  1  0  0  0  0
 19 20  1  0  0  0  0
 19 21  1  0  0  0  0
 19 31  1  0  0  0  0
 20 21  1  0  0  0  0
 20 32  1  0  0  0  0
 20 33  1  0  0  0  0
 21 34  1  0  0  0  0
 21 35  1  0  0  0  0
M  END
>  <Molecule Name>
1281795

>  <MolRegNo>
1281795

>  <m>
=

>  <Value>
880

>  <Unit>
nM

>  <Type>
IC50

>  <pIC50>
6.06

>  <Ligand Efficiency>
0.39

>  <Binding Efficiency>
20.2

>  <Surface Efficiency>
10.99

>  <Assay Index>
642520

>  <Assay Category>


>  <Assay Organism>
Plasmodium falciparum

>  <Target ID>
100588

>  <Target Name>
Dihydroorotate dehydrogenase

>  <Target Organism>
Plasmodium falciparum

>  <Target Description>
Target is a single protein chain

>  <Sequence Accession>
Q54A96

>  <Reference>
J. Med. Chem. 54 (15), 5540-5561 (2011)

>  <Pubmed ID>
21696174

>  <DOI>
10.1021/jm200592f

$$$$
Compound 31
 OpenBabel11072204193D

 43 45  0  0  0  0  0  0  0  0999 V2000
    1.5739   -4.1238  -16.5085 F   0  0  0  0  0  0  0  0  0  0  0  0
    2.8239   -4.5106  -16.8894 C   0  0  0  0  0  0  0  0  0  0  0  0
    2.7082   -4.9353  -18.1770 F   0  0  0  0  0  0  0  0  0  0  0  0
    3.5654   -3.3685  -16.9361 F   0  0  0  0  0  0  0  0  0  0  0  0
    3.4356   -5.5511  -15.9826 C   0  0  0  0  0  0  0  0  0  0  0  0
    2.7351   -6.0423  -14.8744 C   0  0  0  0  0  0  0  0  0  0  0  0
    4.7427   -6.0077  -16.2087 C   0  0  0  0  0  0  0  0  0  0  0  0
    3.3478   -6.9265  -13.9824 C   0  0  0  0  0  0  0  0  0  0  0  0
    5.3542   -6.8912  -15.3113 C   0  0  0  0  0  0  0  0  0  0  0  0
    4.6674   -7.3545  -14.1834 C   0  0  0  0  0  0  0  0  0  0  0  0
    5.3795   -8.1119  -13.2095 N   0  0  0  0  0  0  0  0  0  0  0  0
    4.7163   -8.9188  -12.2758 C   0  0  0  0  0  0  0  0  0  0  0  0
    4.8837   -8.6453  -10.9011 N   0  0  0  0  0  0  0  0  0  0  0  0
    3.9233   -9.9496  -12.6201 C   0  0  0  0  0  0  0  0  0  0  0  0
    5.6117   -7.6602  -10.3036 N   0  0  0  0  0  0  0  0  0  0  0  0
    4.2330   -9.4039   -9.9233 C   0  0  0  0  0  0  0  0  0  0  0  0
    3.2155  -10.6573  -11.5131 C   0  0  0  0  0  0  0  0  0  0  0  0
    5.3878   -7.8952   -9.0045 C   0  0  0  0  0  0  0  0  0  0  0  0
    3.3728  -10.4122  -10.2457 N   0  0  0  0  0  0  0  0  0  0  0  0
    4.5668   -8.9517   -8.7361 N   0  0  0  0  0  0  0  0  0  0  0  0
    2.2152  -11.7121  -11.9092 C   0  0  0  0  0  0  0  0  0  0  0  0
    5.9881   -7.0562   -7.9108 C   0  0  2  0  0  0  0  0  0  0  0  0
    7.3451   -7.5997   -7.4228 C   0  0  0  0  0  0  0  0  0  0  0  0
    5.0380   -6.9419   -6.7090 C   0  0  0  0  0  0  0  0  0  0  0  0
    8.4072   -7.6827   -8.5103 C   0  0  0  0  0  0  0  0  0  0  0  0
    1.7169   -5.7121  -14.6740 H   0  0  0  0  0  0  0  0  0  0  0  0
    5.3033   -5.6509  -17.0718 H   0  0  0  0  0  0  0  0  0  0  0  0
    2.7858   -7.2400  -13.1066 H   0  0  0  0  0  0  0  0  0  0  0  0
    6.3788   -7.2096  -15.4928 H   0  0  0  0  0  0  0  0  0  0  0  0
    6.0026   -7.4619  -12.7116 H   0  0  0  0  0  0  0  0  0  0  0  0
    3.7600  -10.2485  -13.6468 H   0  0  0  0  0  0  0  0  0  0  0  0
    2.1888  -11.8517  -12.9931 H   0  0  0  0  0  0  0  0  0  0  0  0
    1.2225  -11.3995  -11.5725 H   0  0  0  0  0  0  0  0  0  0  0  0
    2.4757  -12.6603  -11.4329 H   0  0  0  0  0  0  0  0  0  0  0  0
    6.1413   -6.0400   -8.2997 H   0  0  0  0  0  0  0  0  0  0  0  0
    7.7242   -6.9430   -6.6290 H   0  0  0  0  0  0  0  0  0  0  0  0
    7.2176   -8.5933   -6.9753 H   0  0  0  0  0  0  0  0  0  0  0  0
    4.8474   -7.9207   -6.2536 H   0  0  0  0  0  0  0  0  0  0  0  0
    4.0713   -6.5216   -7.0069 H   0  0  0  0  0  0  0  0  0  0  0  0
    5.4619   -6.2944   -5.9337 H   0  0  0  0  0  0  0  0  0  0  0  0
    8.5269   -6.7223   -9.0211 H   0  0  0  0  0  0  0  0  0  0  0  0
    8.1574   -8.4457   -9.2540 H   0  0  0  0  0  0  0  0  0  0  0  0
    9.3713   -7.9574   -8.0711 H   0  0  0  0  0  0  0  0  0  0  0  0
  1  2  1  0  0  0  0
  2  3  1  0  0  0  0
  2  4  1  0  0  0  0
  2  5  1  0  0  0  0
  5  6  2  0  0  0  0
  5  7  1  0  0  0  0
  6  8  1  0  0  0  0
  6 26  1  0  0  0  0
  7  9  2  0  0  0  0
  7 27  1  0  0  0  0
  8 10  2  0  0  0  0
  8 28  1  0  0  0  0
  9 10  1  0  0  0  0
  9 29  1  0  0  0  0
 10 11  1  0  0  0  0
 11 12  1  0  0  0  0
 11 30  1  0  0  0  0
 12 13  1  0  0  0  0
 12 14  2  0  0  0  0
 13 15  1  0  0  0  0
 13 16  1  0  0  0  0
 14 17  1  0  0  0  0
 14 31  1  0  0  0  0
 15 18  2  0  0  0  0
 16 19  1  0  0  0  0
 16 20  2  0  0  0  0
 17 21  1  0  0  0  0
 17 19  2  0  0  0  0
 18 20  1  0  0  0  0
 21 32  1  0  0  0  0
 21 33  1  0  0  0  0
 21 34  1  0  0  0  0
 22 24  1  0  0  0  0
 22 23  1  0  0  0  0
 22 18  1  0  0  0  0
 22 35  1  6  0  0  0
 23 25  1  0  0  0  0
 23 36  1  0  0  0  0
 23 37  1  0  0  0  0
 24 38  1  0  0  0  0
 24 39  1  0  0  0  0
 24 40  1  0  0  0  0
 25 41  1  0  0  0  0
 25 42  1  0  0  0  0
 25 43  1  0  0  0  0
M  END
>  <Molecule Name>
1281793

>  <MolRegNo>
1281793

>  <m>
=

>  <Value>
380

>  <Unit>
nM

>  <Type>
IC50

>  <pIC50>
6.42

>  <Ligand Efficiency>
0.35

>  <Binding Efficiency>
18.38

>  <Surface Efficiency>
11.65

>  <Assay Index>
642520

>  <Assay Category>


>  <Assay Organism>
Plasmodium falciparum

>  <Target ID>
100588

>  <Target Name>
Dihydroorotate dehydrogenase

>  <Target Organism>
Plasmodium falciparum

>  <Target Description>
Target is a single protein chain

>  <Sequence Accession>
Q54A96

>  <Reference>
J. Med. Chem. 54 (15), 5540-5561 (2011)

>  <Pubmed ID>
21696174

>  <DOI>
10.1021/jm200592f

$$$$
Compound 32
 OpenBabel11072204193D

 43 45  0  0  0  0  0  0  0  0999 V2000
    3.4889   -0.2698    1.0152 F   0  0  0  0  0  0  0  0  0  0  0  0
    3.2866    0.2941   -0.2095 C   0  0  0  0  0  0  0  0  0  0  0  0
    2.1905    1.0896   -0.0775 F   0  0  0  0  0  0  0  0  0  0  0  0
    4.3402    1.1346   -0.4068 F   0  0  0  0  0  0  0  0  0  0  0  0
    3.1491   -0.7172   -1.3215 C   0  0  0  0  0  0  0  0  0  0  0  0
    3.2492   -2.0869   -1.0598 C   0  0  0  0  0  0  0  0  0  0  0  0
    2.9681   -0.3006   -2.6488 C   0  0  0  0  0  0  0  0  0  0  0  0
    3.2267   -3.0116   -2.1074 C   0  0  0  0  0  0  0  0  0  0  0  0
    2.9368   -1.2339   -3.6949 C   0  0  0  0  0  0  0  0  0  0  0  0
    3.0812   -2.6032   -3.4416 C   0  0  0  0  0  0  0  0  0  0  0  0
    3.0910   -3.5108   -4.5327 N   0  0  0  0  0  0  0  0  0  0  0  0
    2.8837   -4.8877   -4.4286 C   0  0  0  0  0  0  0  0  0  0  0  0
    3.6637   -5.7614   -5.2220 N   0  0  0  0  0  0  0  0  0  0  0  0
    1.9474   -5.4420   -3.6347 C   0  0  0  0  0  0  0  0  0  0  0  0
    4.6160   -5.4655   -6.1541 N   0  0  0  0  0  0  0  0  0  0  0  0
    3.5162   -7.1483   -5.1276 C   0  0  0  0  0  0  0  0  0  0  0  0
    1.9438   -6.9262   -3.5171 C   0  0  0  0  0  0  0  0  0  0  0  0
    4.9505   -6.6818   -6.6139 C   0  0  0  0  0  0  0  0  0  0  0  0
    2.6677   -7.7329   -4.2294 N   0  0  0  0  0  0  0  0  0  0  0  0
    4.3197   -7.7260   -5.9926 N   0  0  0  0  0  0  0  0  0  0  0  0
    1.0645   -7.5125   -2.4426 C   0  0  0  0  0  0  0  0  0  0  0  0
    5.9679   -6.9289   -7.7079 C   0  0  0  0  0  0  0  0  0  0  0  0
    7.3734   -7.0743   -7.0960 C   0  0  0  0  0  0  0  0  0  0  0  0
    5.6351   -8.2330   -8.4687 C   0  0  0  0  0  0  0  0  0  0  0  0
    5.9864   -5.7816   -8.7356 C   0  0  0  0  0  0  0  0  0  0  0  0
    3.3755   -2.4476   -0.0398 H   0  0  0  0  0  0  0  0  0  0  0  0
    2.8682    0.7597   -2.8774 H   0  0  0  0  0  0  0  0  0  0  0  0
    3.3644   -4.0584   -1.8526 H   0  0  0  0  0  0  0  0  0  0  0  0
    2.7958   -0.8808   -4.7144 H   0  0  0  0  0  0  0  0  0  0  0  0
    3.8384   -3.2858   -5.1976 H   0  0  0  0  0  0  0  0  0  0  0  0
    1.2557   -4.8607   -3.0396 H   0  0  0  0  0  0  0  0  0  0  0  0
    0.5422   -6.7315   -1.8829 H   0  0  0  0  0  0  0  0  0  0  0  0
    1.6903   -8.0766   -1.7448 H   0  0  0  0  0  0  0  0  0  0  0  0
    0.3290   -8.1818   -2.8942 H   0  0  0  0  0  0  0  0  0  0  0  0
    7.4151   -7.9093   -6.3865 H   0  0  0  0  0  0  0  0  0  0  0  0
    7.6695   -6.1685   -6.5550 H   0  0  0  0  0  0  0  0  0  0  0  0
    8.1265   -7.2611   -7.8712 H   0  0  0  0  0  0  0  0  0  0  0  0
    5.6659   -9.1062   -7.8057 H   0  0  0  0  0  0  0  0  0  0  0  0
    6.3490   -8.4160   -9.2805 H   0  0  0  0  0  0  0  0  0  0  0  0
    4.6317   -8.1903   -8.9086 H   0  0  0  0  0  0  0  0  0  0  0  0
    6.2696   -4.8294   -8.2732 H   0  0  0  0  0  0  0  0  0  0  0  0
    5.0012   -5.6470   -9.1972 H   0  0  0  0  0  0  0  0  0  0  0  0
    6.7053   -5.9815   -9.5394 H   0  0  0  0  0  0  0  0  0  0  0  0
  1  2  1  0  0  0  0
  2  3  1  0  0  0  0
  2  4  1  0  0  0  0
  2  5  1  0  0  0  0
  5  6  2  0  0  0  0
  5  7  1  0  0  0  0
  6  8  1  0  0  0  0
  6 26  1  0  0  0  0
  7  9  2  0  0  0  0
  7 27  1  0  0  0  0
  8 10  2  0  0  0  0
  8 28  1  0  0  0  0
  9 10  1  0  0  0  0
  9 29  1  0  0  0  0
 10 11  1  0  0  0  0
 11 12  1  0  0  0  0
 11 30  1  0  0  0  0
 12 13  1  0  0  0  0
 12 14  2  0  0  0  0
 13 15  1  0  0  0  0
 13 16  1  0  0  0  0
 14 17  1  0  0  0  0
 14 31  1  0  0  0  0
 15 18  2  0  0  0  0
 16 19  1  0  0  0  0
 16 20  2  0  0  0  0
 17 21  1  0  0  0  0
 17 19  2  0  0  0  0
 18 22  1  0  0  0  0
 18 20  1  0  0  0  0
 21 32  1  0  0  0  0
 21 33  1  0  0  0  0
 21 34  1  0  0  0  0
 22 23  1  0  0  0  0
 22 24  1  0  0  0  0
 22 25  1  0  0  0  0
 23 35  1  0  0  0  0
 23 36  1  0  0  0  0
 23 37  1  0  0  0  0
 24 38  1  0  0  0  0
 24 39  1  0  0  0  0
 24 40  1  0  0  0  0
 25 41  1  0  0  0  0
 25 42  1  0  0  0  0
 25 43  1  0  0  0  0
M  END
>  <Molecule Name>
1281791

>  <MolRegNo>
1281791

>  <m>
=

>  <Value>
460

>  <Unit>
nM

>  <Type>
IC50

>  <pIC50>
6.34

>  <Ligand Efficiency>
0.35

>  <Binding Efficiency>
18.14

>  <Surface Efficiency>
11.5

>  <Assay Index>
642520

>  <Assay Category>


>  <Assay Organism>
Plasmodium falciparum

>  <Target ID>
100588

>  <Target Name>
Dihydroorotate dehydrogenase

>  <Target Organism>
Plasmodium falciparum

>  <Target Description>
Target is a single protein chain

>  <Sequence Accession>
Q54A96

>  <Reference>
J. Med. Chem. 54 (15), 5540-5561 (2011)

>  <Pubmed ID>
21696174

>  <DOI>
10.1021/jm200592f

$$$$
Compound 33
 OpenBabel11072204193D

 43 45  0  0  0  0  0  0  0  0999 V2000
    3.0121   -0.3909    1.1074 F   0  0  0  0  0  0  0  0  0  0  0  0
    2.7550    0.2000   -0.0921 C   0  0  0  0  0  0  0  0  0  0  0  0
    1.5570    0.8310    0.0506 F   0  0  0  0  0  0  0  0  0  0  0  0
    3.6850    1.1851   -0.2297 F   0  0  0  0  0  0  0  0  0  0  0  0
    2.7682   -0.7610   -1.2529 C   0  0  0  0  0  0  0  0  0  0  0  0
    3.0353   -2.1206   -1.0610 C   0  0  0  0  0  0  0  0  0  0  0  0
    2.5426   -0.2944   -2.5567 C   0  0  0  0  0  0  0  0  0  0  0  0
    3.1040   -2.9865   -2.1546 C   0  0  0  0  0  0  0  0  0  0  0  0
    2.6062   -1.1684   -3.6478 C   0  0  0  0  0  0  0  0  0  0  0  0
    2.8875   -2.5209   -3.4624 C   0  0  0  0  0  0  0  0  0  0  0  0
    2.9555   -3.3541   -4.6008 N   0  0  0  0  0  0  0  0  0  0  0  0
    2.8891   -4.7387   -4.5688 C   0  0  0  0  0  0  0  0  0  0  0  0
    3.7822   -5.4620   -5.3999 N   0  0  0  0  0  0  0  0  0  0  0  0
    2.0318   -5.4492   -3.8039 C   0  0  0  0  0  0  0  0  0  0  0  0
    4.7403   -4.9960   -6.2795 N   0  0  0  0  0  0  0  0  0  0  0  0
    3.7926   -6.8578   -5.3707 C   0  0  0  0  0  0  0  0  0  0  0  0
    2.2005   -6.9187   -3.7759 C   0  0  0  0  0  0  0  0  0  0  0  0
    5.2613   -6.1391   -6.7456 C   0  0  0  0  0  0  0  0  0  0  0  0
    3.0209   -7.5861   -4.5179 N   0  0  0  0  0  0  0  0  0  0  0  0
    4.7012   -7.2751   -6.2162 N   0  0  0  0  0  0  0  0  0  0  0  0
    1.3800   -7.6745   -2.7491 C   0  0  0  0  0  0  0  0  0  0  0  0
    6.5602   -6.2887   -7.5297 C   0  0  0  0  0  0  0  0  0  0  0  0
    7.7233   -6.1629   -6.5199 C   0  0  0  0  0  0  0  0  0  0  0  0
    6.5601   -7.6794   -8.2310 C   0  0  0  0  0  0  0  0  0  0  0  0
    6.8252   -5.2690   -8.6522 C   0  0  0  0  0  0  0  0  0  0  0  0
    3.2109   -2.5151   -0.0613 H   0  0  0  0  0  0  0  0  0  0  0  0
    2.3283    0.7626   -2.7260 H   0  0  0  0  0  0  0  0  0  0  0  0
    3.3607   -4.0213   -1.9601 H   0  0  0  0  0  0  0  0  0  0  0  0
    2.4213   -0.7797   -4.6496 H   0  0  0  0  0  0  0  0  0  0  0  0
    3.6698   -3.0236   -5.2603 H   0  0  0  0  0  0  0  0  0  0  0  0
    1.2940   -4.9812   -3.1701 H   0  0  0  0  0  0  0  0  0  0  0  0
    0.7951   -6.9924   -2.1266 H   0  0  0  0  0  0  0  0  0  0  0  0
    2.0462   -8.2499   -2.0981 H   0  0  0  0  0  0  0  0  0  0  0  0
    0.6996   -8.3598   -3.2643 H   0  0  0  0  0  0  0  0  0  0  0  0
    7.4722   -6.5879   -5.5403 H   0  0  0  0  0  0  0  0  0  0  0  0
    7.9630   -5.1042   -6.3394 H   0  0  0  0  0  0  0  0  0  0  0  0
    8.6370   -6.6440   -6.8780 H   0  0  0  0  0  0  0  0  0  0  0  0
    6.0161   -7.6217   -9.1846 H   0  0  0  0  0  0  0  0  0  0  0  0
    6.0661   -8.4671   -7.6532 H   0  0  0  0  0  0  0  0  0  0  0  0
    7.5721   -8.0277   -8.4480 H   0  0  0  0  0  0  0  0  0  0  0  0
    6.0028   -5.2175   -9.3737 H   0  0  0  0  0  0  0  0  0  0  0  0
    7.7256   -5.5663   -9.2093 H   0  0  0  0  0  0  0  0  0  0  0  0
    7.0108   -4.2579   -8.2749 H   0  0  0  0  0  0  0  0  0  0  0  0
  1  2  1  0  0  0  0
  2  3  1  0  0  0  0
  2  4  1  0  0  0  0
  2  5  1  0  0  0  0
  5  6  2  0  0  0  0
  5  7  1  0  0  0  0
  6  8  1  0  0  0  0
  6 26  1  0  0  0  0
  7  9  2  0  0  0  0
  7 27  1  0  0  0  0
  8 10  2  0  0  0  0
  8 28  1  0  0  0  0
  9 10  1  0  0  0  0
  9 29  1  0  0  0  0
 10 11  1  0  0  0  0
 11 12  1  0  0  0  0
 11 30  1  0  0  0  0
 12 13  1  0  0  0  0
 12 14  2  0  0  0  0
 13 15  1  0  0  0  0
 13 16  1  0  0  0  0
 14 17  1  0  0  0  0
 14 31  1  0  0  0  0
 15 18  2  0  0  0  0
 16 19  1  0  0  0  0
 16 20  2  0  0  0  0
 17 21  1  0  0  0  0
 17 19  2  0  0  0  0
 18 22  1  0  0  0  0
 18 20  1  0  0  0  0
 21 32  1  0  0  0  0
 21 33  1  0  0  0  0
 21 34  1  0  0  0  0
 22 23  1  0  0  0  0
 22 35  1  0  0  0  0
 22 36  1  0  0  0  0
 23 24  1  0  0  0  0
 23 25  1  0  0  0  0
 23 37  1  0  0  0  0
 24 38  1  0  0  0  0
 24 39  1  0  0  0  0
 24 40  1  0  0  0  0
 25 41  1  0  0  0  0
 25 42  1  0  0  0  0
 25 43  1  0  0  0  0
M  END
>  <Molecule Name>
1281789

>  <MolRegNo>
1281789

>  <m>
=

>  <Value>
2000

>  <Unit>
nM

>  <Type>
IC50

>  <pIC50>
5.7

>  <Ligand Efficiency>
0.31

>  <Binding Efficiency>
16.31

>  <Surface Efficiency>
10.34

>  <Assay Index>
642520

>  <Assay Category>


>  <Assay Organism>
Plasmodium falciparum

>  <Target ID>
100588

>  <Target Name>
Dihydroorotate dehydrogenase

>  <Target Organism>
Plasmodium falciparum

>  <Target Description>
Target is a single protein chain

>  <Sequence Accession>
Q54A96

>  <Reference>
J. Med. Chem. 54 (15), 5540-5561 (2011)

>  <Pubmed ID>
21696174

>  <DOI>
10.1021/jm200592f

$$$$
Compound 34
 OpenBabel11072204193D

 40 42  0  0  0  0  0  0  0  0999 V2000
    5.6374   -0.2038    0.4298 F   0  0  0  0  0  0  0  0  0  0  0  0
    4.9689    0.7628   -0.2607 C   0  0  0  0  0  0  0  0  0  0  0  0
    3.9602    1.1742    0.5550 F   0  0  0  0  0  0  0  0  0  0  0  0
    5.8309    1.8141   -0.3512 F   0  0  0  0  0  0  0  0  0  0  0  0
    4.4817    0.3093   -1.6160 C   0  0  0  0  0  0  0  0  0  0  0  0
    4.7632   -0.9749   -2.0903 C   0  0  0  0  0  0  0  0  0  0  0  0
    3.7753    1.1866   -2.4507 C   0  0  0  0  0  0  0  0  0  0  0  0
    4.4056   -1.3453   -3.3918 C   0  0  0  0  0  0  0  0  0  0  0  0
    3.4104    0.8047   -3.7507 C   0  0  0  0  0  0  0  0  0  0  0  0
    3.7491   -0.4566   -4.2568 C   0  0  0  0  0  0  0  0  0  0  0  0
    3.3835   -0.7829   -5.5886 N   0  0  0  0  0  0  0  0  0  0  0  0
    3.3906   -2.0539   -6.1644 C   0  0  0  0  0  0  0  0  0  0  0  0
    3.7644   -2.2000   -7.5257 N   0  0  0  0  0  0  0  0  0  0  0  0
    2.9962   -3.1662   -5.5154 C   0  0  0  0  0  0  0  0  0  0  0  0
    4.0895   -1.2438   -8.4486 N   0  0  0  0  0  0  0  0  0  0  0  0
    3.8019   -3.4671   -8.1313 C   0  0  0  0  0  0  0  0  0  0  0  0
    3.2006   -4.4686   -6.1994 C   0  0  0  0  0  0  0  0  0  0  0  0
    4.2562   -1.9780   -9.5588 C   0  0  0  0  0  0  0  0  0  0  0  0
    3.5656   -4.6130   -7.4359 N   0  0  0  0  0  0  0  0  0  0  0  0
    4.0993   -3.3259   -9.4001 N   0  0  0  0  0  0  0  0  0  0  0  0
    3.0087   -5.7044   -5.3589 C   0  0  0  0  0  0  0  0  0  0  0  0
    4.5359   -1.3909  -10.9130 C   0  0  0  0  0  0  0  0  0  0  0  0
    5.8052   -1.9810  -11.5360 C   0  0  0  0  0  0  0  0  0  0  0  0
    3.3522   -1.6094  -11.8622 C   0  0  0  0  0  0  0  0  0  0  0  0
    5.2911   -1.6920   -1.4622 H   0  0  0  0  0  0  0  0  0  0  0  0
    3.5195    2.1846   -2.0969 H   0  0  0  0  0  0  0  0  0  0  0  0
    4.7006   -2.3372   -3.7200 H   0  0  0  0  0  0  0  0  0  0  0  0
    2.8576    1.5093   -4.3686 H   0  0  0  0  0  0  0  0  0  0  0  0
    3.6349   -0.0467   -6.2539 H   0  0  0  0  0  0  0  0  0  0  0  0
    2.5964   -3.1545   -4.5110 H   0  0  0  0  0  0  0  0  0  0  0  0
    2.8634   -5.4490   -4.3055 H   0  0  0  0  0  0  0  0  0  0  0  0
    3.8994   -6.3340   -5.4385 H   0  0  0  0  0  0  0  0  0  0  0  0
    2.1384   -6.2581   -5.7181 H   0  0  0  0  0  0  0  0  0  0  0  0
    4.6862   -0.3095  -10.8064 H   0  0  0  0  0  0  0  0  0  0  0  0
    5.7182   -3.0642  -11.6816 H   0  0  0  0  0  0  0  0  0  0  0  0
    6.6771   -1.8004  -10.8990 H   0  0  0  0  0  0  0  0  0  0  0  0
    6.0046   -1.5302  -12.5152 H   0  0  0  0  0  0  0  0  0  0  0  0
    3.1622   -2.6771  -12.0291 H   0  0  0  0  0  0  0  0  0  0  0  0
    3.5417   -1.1480  -12.8376 H   0  0  0  0  0  0  0  0  0  0  0  0
    2.4349   -1.1708  -11.4545 H   0  0  0  0  0  0  0  0  0  0  0  0
  1  2  1  0  0  0  0
  2  3  1  0  0  0  0
  2  4  1  0  0  0  0
  2  5  1  0  0  0  0
  5  6  2  0  0  0  0
  5  7  1  0  0  0  0
  6  8  1  0  0  0  0
  6 25  1  0  0  0  0
  7  9  2  0  0  0  0
  7 26  1  0  0  0  0
  8 10  2  0  0  0  0
  8 27  1  0  0  0  0
  9 10  1  0  0  0  0
  9 28  1  0  0  0  0
 10 11  1  0  0  0  0
 11 12  1  0  0  0  0
 11 29  1  0  0  0  0
 12 13  1  0  0  0  0
 12 14  2  0  0  0  0
 13 15  1  0  0  0  0
 13 16  1  0  0  0  0
 14 17  1  0  0  0  0
 14 30  1  0  0  0  0
 15 18  2  0  0  0  0
 16 19  1  0  0  0  0
 16 20  2  0  0  0  0
 17 21  1  0  0  0  0
 17 19  2  0  0  0  0
 18 22  1  0  0  0  0
 18 20  1  0  0  0  0
 21 31  1  0  0  0  0
 21 32  1  0  0  0  0
 21 33  1  0  0  0  0
 22 23  1  0  0  0  0
 22 24  1  0  0  0  0
 22 34  1  0  0  0  0
 23 35  1  0  0  0  0
 23 36  1  0  0  0  0
 23 37  1  0  0  0  0
 24 38  1  0  0  0  0
 24 39  1  0  0  0  0
 24 40  1  0  0  0  0
M  END
>  <Molecule Name>
1281787

>  <MolRegNo>
1281787

>  <m>
=

>  <Value>
110

>  <Unit>
nM

>  <Type>
IC50

>  <pIC50>
6.96

>  <Ligand Efficiency>
0.4

>  <Binding Efficiency>
20.75

>  <Surface Efficiency>
12.63

>  <Assay Index>
642520

>  <Assay Category>


>  <Assay Organism>
Plasmodium falciparum

>  <Target ID>
100588

>  <Target Name>
Dihydroorotate dehydrogenase

>  <Target Organism>
Plasmodium falciparum

>  <Target Description>
Target is a single protein chain

>  <Sequence Accession>
Q54A96

>  <Reference>
J. Med. Chem. 54 (15), 5540-5561 (2011)

>  <Pubmed ID>
21696174

>  <DOI>
10.1021/jm200592f

$$$$
Compound 35
 OpenBabel11072204193D

 37 39  0  0  0  0  0  0  0  0999 V2000
    9.8228    2.7854   -2.6523 Cl  0  0  0  0  0  0  0  0  0  0  0  0
    8.5740    1.8925   -1.8701 C   0  0  0  0  0  0  0  0  0  0  0  0
    7.3557    2.5171   -1.5795 C   0  0  0  0  0  0  0  0  0  0  0  0
    8.7909    0.5630   -1.5283 C   0  0  0  0  0  0  0  0  0  0  0  0
    6.3313    1.8280   -0.9211 C   0  0  0  0  0  0  0  0  0  0  0  0
    7.7828   -0.1489   -0.8928 C   0  0  0  0  0  0  0  0  0  0  0  0
    5.1129    2.4029   -0.5111 N   0  0  0  0  0  0  0  0  0  0  0  0
    6.5718    0.4833   -0.5838 C   0  0  0  0  0  0  0  0  0  0  0  0
    4.6596    3.7182   -0.4683 C   0  0  0  0  0  0  0  0  0  0  0  0
    3.2534    3.8903   -0.3772 N   0  0  0  0  0  0  0  0  0  0  0  0
    5.4078    4.8368   -0.4283 C   0  0  0  0  0  0  0  0  0  0  0  0
    2.2813    2.9312   -0.3202 N   0  0  0  0  0  0  0  0  0  0  0  0
    2.6659    5.1565   -0.2820 C   0  0  0  0  0  0  0  0  0  0  0  0
    4.6931    6.1500   -0.3951 C   0  0  0  0  0  0  0  0  0  0  0  0
    1.1720    3.6674   -0.1726 C   0  0  0  0  0  0  0  0  0  0  0  0
    3.4060    6.3003   -0.3187 N   0  0  0  0  0  0  0  0  0  0  0  0
    1.3661    5.0193   -0.1481 N   0  0  0  0  0  0  0  0  0  0  0  0
    5.5438    7.3943   -0.4665 C   0  0  0  0  0  0  0  0  0  0  0  0
   -0.1842    3.0625    0.0306 C   0  0  0  0  0  0  0  0  0  0  0  0
   -0.6127    3.1815    1.4956 C   0  0  0  0  0  0  0  0  0  0  0  0
   -1.2423    3.6940   -0.8763 C   0  0  0  0  0  0  0  0  0  0  0  0
    7.2220    3.5396   -1.9111 H   0  0  0  0  0  0  0  0  0  0  0  0
    9.7379    0.0780   -1.7583 H   0  0  0  0  0  0  0  0  0  0  0  0
    7.9340   -1.1913   -0.6267 H   0  0  0  0  0  0  0  0  0  0  0  0
    4.3577    1.7275   -0.3647 H   0  0  0  0  0  0  0  0  0  0  0  0
    5.8052   -0.0931   -0.0695 H   0  0  0  0  0  0  0  0  0  0  0  0
    6.4860    4.8457   -0.3944 H   0  0  0  0  0  0  0  0  0  0  0  0
    6.6015    7.1522   -0.5983 H   0  0  0  0  0  0  0  0  0  0  0  0
    5.4222    7.9693    0.4555 H   0  0  0  0  0  0  0  0  0  0  0  0
    5.2164    8.0036   -1.3142 H   0  0  0  0  0  0  0  0  0  0  0  0
   -0.1313    1.9947   -0.2183 H   0  0  0  0  0  0  0  0  0  0  0  0
   -0.6776    4.2294    1.8107 H   0  0  0  0  0  0  0  0  0  0  0  0
    0.1068    2.6825    2.1540 H   0  0  0  0  0  0  0  0  0  0  0  0
   -1.5937    2.7208    1.6548 H   0  0  0  0  0  0  0  0  0  0  0  0
   -1.3614    4.7654   -0.6765 H   0  0  0  0  0  0  0  0  0  0  0  0
   -2.2166    3.2165   -0.7246 H   0  0  0  0  0  0  0  0  0  0  0  0
   -0.9746    3.5797   -1.9325 H   0  0  0  0  0  0  0  0  0  0  0  0
  1  2  1  0  0  0  0
  2  3  2  0  0  0  0
  2  4  1  0  0  0  0
  3  5  1  0  0  0  0
  3 22  1  0  0  0  0
  4  6  2  0  0  0  0
  4 23  1  0  0  0  0
  5  7  1  0  0  0  0
  5  8  2  0  0  0  0
  6  8  1  0  0  0  0
  6 24  1  0  0  0  0
  7  9  1  0  0  0  0
  7 25  1  0  0  0  0
  8 26  1  0  0  0  0
  9 10  1  0  0  0  0
  9 11  2  0  0  0  0
 10 12  1  0  0  0  0
 10 13  1  0  0  0  0
 11 14  1  0  0  0  0
 11 27  1  0  0  0  0
 12 15  2  0  0  0  0
 13 16  1  0  0  0  0
 13 17  2  0  0  0  0
 14 18  1  0  0  0  0
 14 16  2  0  0  0  0
 15 19  1  0  0  0  0
 15 17  1  0  0  0  0
 18 28  1  0  0  0  0
 18 29  1  0  0  0  0
 18 30  1  0  0  0  0
 19 20  1  0  0  0  0
 19 21  1  0  0  0  0
 19 31  1  0  0  0  0
 20 32  1  0  0  0  0
 20 33  1  0  0  0  0
 20 34  1  0  0  0  0
 21 35  1  0  0  0  0
 21 36  1  0  0  0  0
 21 37  1  0  0  0  0
M  END
>  <Molecule Name>
1281786

>  <MolRegNo>
1281786

>  <m>
=

>  <Value>
120

>  <Unit>
nM

>  <Type>
IC50

>  <pIC50>
6.92

>  <Ligand Efficiency>
0.45

>  <Binding Efficiency>
22.93

>  <Surface Efficiency>
12.56

>  <Assay Index>
642520

>  <Assay Category>


>  <Assay Organism>
Plasmodium falciparum

>  <Target ID>
100588

>  <Target Name>
Dihydroorotate dehydrogenase

>  <Target Organism>
Plasmodium falciparum

>  <Target Description>
Target is a single protein chain

>  <Sequence Accession>
Q54A96

>  <Reference>
J. Med. Chem. 54 (15), 5540-5561 (2011)

>  <Pubmed ID>
21696174

>  <DOI>
10.1021/jm200592f

$$$$
Compound 36
 OpenBabel11072204193D

 37 39  0  0  0  0  0  0  0  0999 V2000
    3.2451    1.1422    3.9031 Cl  0  0  0  0  0  0  0  0  0  0  0  0
    4.2353    0.7716    2.5465 C   0  0  0  0  0  0  0  0  0  0  0  0
    4.7236   -0.5182    2.3845 C   0  0  0  0  0  0  0  0  0  0  0  0
    4.5544    1.7593    1.6201 C   0  0  0  0  0  0  0  0  0  0  0  0
    5.5700   -0.8074    1.3107 C   0  0  0  0  0  0  0  0  0  0  0  0
    5.3966    1.4608    0.5402 C   0  0  0  0  0  0  0  0  0  0  0  0
    5.9558    0.1825    0.3907 C   0  0  0  0  0  0  0  0  0  0  0  0
    6.8331   -0.0574   -0.7054 N   0  0  0  0  0  0  0  0  0  0  0  0
    7.5273   -1.2559   -0.8901 C   0  0  0  0  0  0  0  0  0  0  0  0
    8.9410   -1.2217   -0.9636 N   0  0  0  0  0  0  0  0  0  0  0  0
    6.9277   -2.4541   -1.0233 C   0  0  0  0  0  0  0  0  0  0  0  0
    9.7850   -0.1472   -0.9653 N   0  0  0  0  0  0  0  0  0  0  0  0
    9.6867   -2.4018   -1.0760 C   0  0  0  0  0  0  0  0  0  0  0  0
    7.8072   -3.6566   -1.0066 C   0  0  0  0  0  0  0  0  0  0  0  0
   10.9816   -0.7352   -1.1006 C   0  0  0  0  0  0  0  0  0  0  0  0
    9.1046   -3.6340   -1.0484 N   0  0  0  0  0  0  0  0  0  0  0  0
   10.9576   -2.1014   -1.1615 N   0  0  0  0  0  0  0  0  0  0  0  0
    7.1230   -4.9924   -0.8695 C   0  0  0  0  0  0  0  0  0  0  0  0
   12.2683    0.0223   -1.2329 C   0  0  0  0  0  0  0  0  0  0  0  0
   13.2857   -0.3982   -0.1677 C   0  0  0  0  0  0  0  0  0  0  0  0
   12.8725   -0.1736   -2.6270 C   0  0  0  0  0  0  0  0  0  0  0  0
    4.4680   -1.3020    3.0928 H   0  0  0  0  0  0  0  0  0  0  0  0
    4.1598    2.7650    1.7352 H   0  0  0  0  0  0  0  0  0  0  0  0
    5.9422   -1.8237    1.2464 H   0  0  0  0  0  0  0  0  0  0  0  0
    5.6234    2.2457   -0.1780 H   0  0  0  0  0  0  0  0  0  0  0  0
    7.4524    0.7501   -0.8388 H   0  0  0  0  0  0  0  0  0  0  0  0
    5.8549   -2.5752   -1.0507 H   0  0  0  0  0  0  0  0  0  0  0  0
    6.0432   -4.8770   -0.7399 H   0  0  0  0  0  0  0  0  0  0  0  0
    7.5229   -5.5073    0.0095 H   0  0  0  0  0  0  0  0  0  0  0  0
    7.3169   -5.5950   -1.7609 H   0  0  0  0  0  0  0  0  0  0  0  0
   12.0668    1.0929   -1.0994 H   0  0  0  0  0  0  0  0  0  0  0  0
   13.5350   -1.4630   -0.2459 H   0  0  0  0  0  0  0  0  0  0  0  0
   12.8962   -0.2218    0.8406 H   0  0  0  0  0  0  0  0  0  0  0  0
   14.2171    0.1696   -0.2730 H   0  0  0  0  0  0  0  0  0  0  0  0
   13.1112   -1.2271   -2.8156 H   0  0  0  0  0  0  0  0  0  0  0  0
   13.7964    0.4040   -2.7381 H   0  0  0  0  0  0  0  0  0  0  0  0
   12.1745    0.1516   -3.4058 H   0  0  0  0  0  0  0  0  0  0  0  0
  1  2  1  0  0  0  0
  2  3  2  0  0  0  0
  2  4  1  0  0  0  0
  3  5  1  0  0  0  0
  3 22  1  0  0  0  0
  4  6  2  0  0  0  0
  4 23  1  0  0  0  0
  5  7  2  0  0  0  0
  5 24  1  0  0  0  0
  6  7  1  0  0  0  0
  6 25  1  0  0  0  0
  7  8  1  0  0  0  0
  8  9  1  0  0  0  0
  8 26  1  0  0  0  0
  9 10  1  0  0  0  0
  9 11  2  0  0  0  0
 10 12  1  0  0  0  0
 10 13  1  0  0  0  0
 11 14  1  0  0  0  0
 11 27  1  0  0  0  0
 12 15  2  0  0  0  0
 13 16  1  0  0  0  0
 13 17  2  0  0  0  0
 14 18  1  0  0  0  0
 14 16  2  0  0  0  0
 15 19  1  0  0  0  0
 15 17  1  0  0  0  0
 18 28  1  0  0  0  0
 18 29  1  0  0  0  0
 18 30  1  0  0  0  0
 19 20  1  0  0  0  0
 19 21  1  0  0  0  0
 19 31  1  0  0  0  0
 20 32  1  0  0  0  0
 20 33  1  0  0  0  0
 20 34  1  0  0  0  0
 21 35  1  0  0  0  0
 21 36  1  0  0  0  0
 21 37  1  0  0  0  0
M  END
>  <Molecule Name>
1281785

>  <MolRegNo>
1281785

>  <m>
=

>  <Value>
330

>  <Unit>
nM

>  <Type>
IC50

>  <pIC50>
6.48

>  <Ligand Efficiency>
0.42

>  <Binding Efficiency>
21.48

>  <Surface Efficiency>
11.76

>  <Assay Index>
642520

>  <Assay Category>


>  <Assay Organism>
Plasmodium falciparum

>  <Target ID>
100588

>  <Target Name>
Dihydroorotate dehydrogenase

>  <Target Organism>
Plasmodium falciparum

>  <Target Description>
Target is a single protein chain

>  <Sequence Accession>
Q54A96

>  <Reference>
J. Med. Chem. 54 (15), 5540-5561 (2011)

>  <Pubmed ID>
21696174

>  <DOI>
10.1021/jm200592f

$$$$
Compound 37
 OpenBabel11072204193D

 34 36  0  0  0  0  0  0  0  0999 V2000
    9.9522    2.8003   -2.5674 Cl  0  0  0  0  0  0  0  0  0  0  0  0
    8.6848    1.9177   -1.8038 C   0  0  0  0  0  0  0  0  0  0  0  0
    7.4654    2.5504   -1.5395 C   0  0  0  0  0  0  0  0  0  0  0  0
    8.8894    0.5884   -1.4511 C   0  0  0  0  0  0  0  0  0  0  0  0
    6.4274    1.8733   -0.8905 C   0  0  0  0  0  0  0  0  0  0  0  0
    7.8629   -0.1137   -0.8291 C   0  0  0  0  0  0  0  0  0  0  0  0
    5.2090    2.4628   -0.5000 N   0  0  0  0  0  0  0  0  0  0  0  0
    6.6519    0.5284   -0.5442 C   0  0  0  0  0  0  0  0  0  0  0  0
    4.7677    3.7829   -0.4744 C   0  0  0  0  0  0  0  0  0  0  0  0
    3.3622    3.9657   -0.3924 N   0  0  0  0  0  0  0  0  0  0  0  0
    5.5211    4.8987   -0.4425 C   0  0  0  0  0  0  0  0  0  0  0  0
    2.3846    3.0150   -0.3262 N   0  0  0  0  0  0  0  0  0  0  0  0
    2.7818    5.2362   -0.3155 C   0  0  0  0  0  0  0  0  0  0  0  0
    4.8147    6.2155   -0.4270 C   0  0  0  0  0  0  0  0  0  0  0  0
    1.2828    3.7618   -0.1839 C   0  0  0  0  0  0  0  0  0  0  0  0
    3.5280    6.3752   -0.3654 N   0  0  0  0  0  0  0  0  0  0  0  0
    1.4807    5.1110   -0.1854 N   0  0  0  0  0  0  0  0  0  0  0  0
    5.6726    7.4539   -0.4959 C   0  0  0  0  0  0  0  0  0  0  0  0
   -0.0691    3.1792    0.0130 C   0  0  0  0  0  0  0  0  0  0  0  0
   -0.2753    2.6984    1.4415 C   0  0  0  0  0  0  0  0  0  0  0  0
    7.3411    3.5702   -1.8824 H   0  0  0  0  0  0  0  0  0  0  0  0
    9.8373    0.0993   -1.6587 H   0  0  0  0  0  0  0  0  0  0  0  0
    8.0042   -1.1568   -0.5555 H   0  0  0  0  0  0  0  0  0  0  0  0
    4.4477    1.7948   -0.3480 H   0  0  0  0  0  0  0  0  0  0  0  0
    5.8736   -0.0402   -0.0381 H   0  0  0  0  0  0  0  0  0  0  0  0
    6.5989    4.9008   -0.4029 H   0  0  0  0  0  0  0  0  0  0  0  0
    6.7295    7.2044   -0.6197 H   0  0  0  0  0  0  0  0  0  0  0  0
    5.5477    8.0304    0.4246 H   0  0  0  0  0  0  0  0  0  0  0  0
    5.3542    8.0632   -1.3470 H   0  0  0  0  0  0  0  0  0  0  0  0
   -0.2217    2.3476   -0.6838 H   0  0  0  0  0  0  0  0  0  0  0  0
   -0.8301    3.9330   -0.2235 H   0  0  0  0  0  0  0  0  0  0  0  0
    0.4794    1.9559    1.7219 H   0  0  0  0  0  0  0  0  0  0  0  0
   -1.2635    2.2417    1.5536 H   0  0  0  0  0  0  0  0  0  0  0  0
   -0.2017    3.5309    2.1496 H   0  0  0  0  0  0  0  0  0  0  0  0
  1  2  1  0  0  0  0
  2  3  2  0  0  0  0
  2  4  1  0  0  0  0
  3  5  1  0  0  0  0
  3 21  1  0  0  0  0
  4  6  2  0  0  0  0
  4 22  1  0  0  0  0
  5  7  1  0  0  0  0
  5  8  2  0  0  0  0
  6  8  1  0  0  0  0
  6 23  1  0  0  0  0
  7  9  1  0  0  0  0
  7 24  1  0  0  0  0
  8 25  1  0  0  0  0
  9 10  1  0  0  0  0
  9 11  2  0  0  0  0
 10 12  1  0  0  0  0
 10 13  1  0  0  0  0
 11 14  1  0  0  0  0
 11 26  1  0  0  0  0
 12 15  2  0  0  0  0
 13 16  1  0  0  0  0
 13 17  2  0  0  0  0
 14 18  1  0  0  0  0
 14 16  2  0  0  0  0
 15 19  1  0  0  0  0
 15 17  1  0  0  0  0
 18 27  1  0  0  0  0
 18 28  1  0  0  0  0
 18 29  1  0  0  0  0
 19 20  1  0  0  0  0
 19 30  1  0  0  0  0
 19 31  1  0  0  0  0
 20 32  1  0  0  0  0
 20 33  1  0  0  0  0
 20 34  1  0  0  0  0
M  END
>  <Molecule Name>
1281782

>  <MolRegNo>
1281782

>  <m>
=

>  <Value>
240

>  <Unit>
nM

>  <Type>
IC50

>  <pIC50>
6.62

>  <Ligand Efficiency>
0.45

>  <Binding Efficiency>
23.01

>  <Surface Efficiency>
12.01

>  <Assay Index>
642520

>  <Assay Category>


>  <Assay Organism>
Plasmodium falciparum

>  <Target ID>
100588

>  <Target Name>
Dihydroorotate dehydrogenase

>  <Target Organism>
Plasmodium falciparum

>  <Target Description>
Target is a single protein chain

>  <Sequence Accession>
Q54A96

>  <Reference>
J. Med. Chem. 54 (15), 5540-5561 (2011)

>  <Pubmed ID>
21696174

>  <DOI>
10.1021/jm200592f

$$$$
Compound 38
 OpenBabel11072204193D

 34 36  0  0  0  0  0  0  0  0999 V2000
    3.3681    1.1810    3.9317 Cl  0  0  0  0  0  0  0  0  0  0  0  0
    4.3437    0.8117    2.5650 C   0  0  0  0  0  0  0  0  0  0  0  0
    4.8134   -0.4819    2.3851 C   0  0  0  0  0  0  0  0  0  0  0  0
    4.6712    1.8069    1.6482 C   0  0  0  0  0  0  0  0  0  0  0  0
    5.6516   -0.7700    1.3039 C   0  0  0  0  0  0  0  0  0  0  0  0
    5.5048    1.5092    0.5607 C   0  0  0  0  0  0  0  0  0  0  0  0
    6.0473    0.2263    0.3952 C   0  0  0  0  0  0  0  0  0  0  0  0
    6.9187   -0.0109   -0.7069 N   0  0  0  0  0  0  0  0  0  0  0  0
    7.6135   -1.2113   -0.8959 C   0  0  0  0  0  0  0  0  0  0  0  0
    9.0260   -1.1752   -0.9646 N   0  0  0  0  0  0  0  0  0  0  0  0
    7.0154   -2.4063   -1.0388 C   0  0  0  0  0  0  0  0  0  0  0  0
    9.8609   -0.0982   -0.9510 N   0  0  0  0  0  0  0  0  0  0  0  0
    9.7755   -2.3533   -1.0741 C   0  0  0  0  0  0  0  0  0  0  0  0
    7.8952   -3.6084   -1.0171 C   0  0  0  0  0  0  0  0  0  0  0  0
   11.0635   -0.6805   -1.0947 C   0  0  0  0  0  0  0  0  0  0  0  0
    9.1931   -3.5852   -1.0522 N   0  0  0  0  0  0  0  0  0  0  0  0
   11.0484   -2.0449   -1.1603 N   0  0  0  0  0  0  0  0  0  0  0  0
    7.2110   -4.9446   -0.8801 C   0  0  0  0  0  0  0  0  0  0  0  0
   12.3386    0.0731   -1.1920 C   0  0  0  0  0  0  0  0  0  0  0  0
   12.6900    0.4075   -2.6338 C   0  0  0  0  0  0  0  0  0  0  0  0
    4.5508   -1.2708    3.0852 H   0  0  0  0  0  0  0  0  0  0  0  0
    4.2913    2.8151    1.7766 H   0  0  0  0  0  0  0  0  0  0  0  0
    6.0096   -1.7902    1.2261 H   0  0  0  0  0  0  0  0  0  0  0  0
    5.7391    2.2995   -0.1488 H   0  0  0  0  0  0  0  0  0  0  0  0
    7.5408    0.7954   -0.8353 H   0  0  0  0  0  0  0  0  0  0  0  0
    5.9412   -2.5282   -1.0746 H   0  0  0  0  0  0  0  0  0  0  0  0
    6.1337   -4.8262   -0.7366 H   0  0  0  0  0  0  0  0  0  0  0  0
    7.6199   -5.4647   -0.0082 H   0  0  0  0  0  0  0  0  0  0  0  0
    7.3941   -5.5392   -1.7773 H   0  0  0  0  0  0  0  0  0  0  0  0
   13.1476   -0.5311   -0.7612 H   0  0  0  0  0  0  0  0  0  0  0  0
   12.2878    0.9943   -0.6004 H   0  0  0  0  0  0  0  0  0  0  0  0
   12.7687   -0.5010   -3.2423 H   0  0  0  0  0  0  0  0  0  0  0  0
   13.6488    0.9325   -2.6832 H   0  0  0  0  0  0  0  0  0  0  0  0
   11.9262    1.0479   -3.0866 H   0  0  0  0  0  0  0  0  0  0  0  0
  1  2  1  0  0  0  0
  2  3  2  0  0  0  0
  2  4  1  0  0  0  0
  3  5  1  0  0  0  0
  3 21  1  0  0  0  0
  4  6  2  0  0  0  0
  4 22  1  0  0  0  0
  5  7  2  0  0  0  0
  5 23  1  0  0  0  0
  6  7  1  0  0  0  0
  6 24  1  0  0  0  0
  7  8  1  0  0  0  0
  8  9  1  0  0  0  0
  8 25  1  0  0  0  0
  9 10  1  0  0  0  0
  9 11  2  0  0  0  0
 10 12  1  0  0  0  0
 10 13  1  0  0  0  0
 11 14  1  0  0  0  0
 11 26  1  0  0  0  0
 12 15  2  0  0  0  0
 13 16  1  0  0  0  0
 13 17  2  0  0  0  0
 14 18  1  0  0  0  0
 14 16  2  0  0  0  0
 15 19  1  0  0  0  0
 15 17  1  0  0  0  0
 18 27  1  0  0  0  0
 18 28  1  0  0  0  0
 18 29  1  0  0  0  0
 19 20  1  0  0  0  0
 19 30  1  0  0  0  0
 19 31  1  0  0  0  0
 20 32  1  0  0  0  0
 20 33  1  0  0  0  0
 20 34  1  0  0  0  0
M  END
>  <Molecule Name>
1281781

>  <MolRegNo>
1281781

>  <m>
=

>  <Value>
280

>  <Unit>
nM

>  <Type>
IC50

>  <pIC50>
6.55

>  <Ligand Efficiency>
0.45

>  <Binding Efficiency>
22.77

>  <Surface Efficiency>
11.89

>  <Assay Index>
642520

>  <Assay Category>


>  <Assay Organism>
Plasmodium falciparum

>  <Target ID>
100588

>  <Target Name>
Dihydroorotate dehydrogenase

>  <Target Organism>
Plasmodium falciparum

>  <Target Description>
Target is a single protein chain

>  <Sequence Accession>
Q54A96

>  <Reference>
J. Med. Chem. 54 (15), 5540-5561 (2011)

>  <Pubmed ID>
21696174

>  <DOI>
10.1021/jm200592f

$$$$
