Compound 1
 OpenBabel11072204203D

 40 42  0  0  0  0  0  0  0  0999 V2000
    7.5453    0.8644   -0.5845 F   0  0  0  0  0  0  0  0  0  0  0  0
    6.7612    1.9347   -0.2722 C   0  0  0  0  0  0  0  0  0  0  0  0
    6.2093    1.6549    0.9382 F   0  0  0  0  0  0  0  0  0  0  0  0
    7.6221    2.9718   -0.0634 F   0  0  0  0  0  0  0  0  0  0  0  0
    5.7326    2.2553   -1.3276 C   0  0  0  0  0  0  0  0  0  0  0  0
    5.6476    1.4925   -2.4942 C   0  0  0  0  0  0  0  0  0  0  0  0
    4.8693    3.3505   -1.1811 C   0  0  0  0  0  0  0  0  0  0  0  0
    4.7854    1.8702   -3.5265 C   0  0  0  0  0  0  0  0  0  0  0  0
    4.0009    3.7204   -2.2179 C   0  0  0  0  0  0  0  0  0  0  0  0
    3.9948    3.0250   -3.4342 C   0  0  0  0  0  0  0  0  0  0  0  0
    3.1626    3.4968   -4.4928 N   0  0  0  0  0  0  0  0  0  0  0  0
    3.2306    2.9849   -5.7930 C   0  0  0  0  0  0  0  0  0  0  0  0
    3.6320    3.8425   -6.8421 N   0  0  0  0  0  0  0  0  0  0  0  0
    2.9330    1.7120   -6.1079 C   0  0  0  0  0  0  0  0  0  0  0  0
    3.8948    5.1778   -6.8034 N   0  0  0  0  0  0  0  0  0  0  0  0
    3.7937    3.3669   -8.1474 C   0  0  0  0  0  0  0  0  0  0  0  0
    3.2468    1.2713   -7.4971 C   0  0  0  0  0  0  0  0  0  0  0  0
    4.1985    5.4489   -8.0873 C   0  0  0  0  0  0  0  0  0  0  0  0
    3.6272    2.0518   -8.4634 N   0  0  0  0  0  0  0  0  0  0  0  0
    4.1385    4.3610   -8.9292 N   0  0  0  0  0  0  0  0  0  0  0  0
    3.1400   -0.2060   -7.7806 C   0  0  0  0  0  0  0  0  0  0  0  0
    4.5020    6.8313   -8.6264 C   0  0  0  0  0  0  0  0  0  0  0  0
    4.4910    7.7824   -7.6443 F   0  0  0  0  0  0  0  0  0  0  0  0
    5.7649    6.8750   -9.1533 F   0  0  0  0  0  0  0  0  0  0  0  0
    3.5293    7.2678   -9.7233 C   0  0  0  0  0  0  0  0  0  0  0  0
    2.0870    7.3644   -9.2457 C   0  0  0  0  0  0  0  0  0  0  0  0
    6.2783    0.6145   -2.6289 H   0  0  0  0  0  0  0  0  0  0  0  0
    4.8898    3.9414   -0.2663 H   0  0  0  0  0  0  0  0  0  0  0  0
    4.8002    1.2558   -4.4192 H   0  0  0  0  0  0  0  0  0  0  0  0
    3.3525    4.5827   -2.0761 H   0  0  0  0  0  0  0  0  0  0  0  0
    3.2044    4.5229   -4.5097 H   0  0  0  0  0  0  0  0  0  0  0  0
    2.5686    0.9948   -5.3872 H   0  0  0  0  0  0  0  0  0  0  0  0
    2.9146   -0.7696   -6.8700 H   0  0  0  0  0  0  0  0  0  0  0  0
    4.0998   -0.5605   -8.1746 H   0  0  0  0  0  0  0  0  0  0  0  0
    2.3570   -0.3856   -8.5205 H   0  0  0  0  0  0  0  0  0  0  0  0
    3.5882    6.5807  -10.5739 H   0  0  0  0  0  0  0  0  0  0  0  0
    3.8395    8.2501  -10.1007 H   0  0  0  0  0  0  0  0  0  0  0  0
    1.7071    6.3915   -8.9173 H   0  0  0  0  0  0  0  0  0  0  0  0
    1.4426    7.7138  -10.0582 H   0  0  0  0  0  0  0  0  0  0  0  0
    1.9975    8.0682   -8.4131 H   0  0  0  0  0  0  0  0  0  0  0  0
  1  2  1  0  0  0  0
  2  3  1  0  0  0  0
  2  4  1  0  0  0  0
  2  5  1  0  0  0  0
  5  6  2  0  0  0  0
  5  7  1  0  0  0  0
  6  8  1  0  0  0  0
  6 27  1  0  0  0  0
  7  9  2  0  0  0  0
  7 28  1  0  0  0  0
  8 10  2  0  0  0  0
  8 29  1  0  0  0  0
  9 10  1  0  0  0  0
  9 30  1  0  0  0  0
 10 11  1  0  0  0  0
 11 12  1  0  0  0  0
 11 31  1  0  0  0  0
 12 13  1  0  0  0  0
 12 14  2  0  0  0  0
 13 15  1  0  0  0  0
 13 16  1  0  0  0  0
 14 17  1  0  0  0  0
 14 32  1  0  0  0  0
 15 18  2  0  0  0  0
 16 19  1  0  0  0  0
 16 20  2  0  0  0  0
 17 21  1  0  0  0  0
 17 19  2  0  0  0  0
 18 22  1  0  0  0  0
 18 20  1  0  0  0  0
 21 33  1  0  0  0  0
 21 34  1  0  0  0  0
 21 35  1  0  0  0  0
 22 23  1  0  0  0  0
 22 24  1  0  0  0  0
 22 25  1  0  0  0  0
 25 26  1  0  0  0  0
 25 36  1  0  0  0  0
 25 37  1  0  0  0  0
 26 38  1  0  0  0  0
 26 39  1  0  0  0  0
 26 40  1  0  0  0  0
M  END
>  <ID>
1

>  <Parent ID>
-1

>  <Generation>
0

>  <Parent Generation>
-1

>  <Child No>
1

>  <Fitness>
1

>  <SkelSpheres sim score>
1

>  <FragFp sim score>
1

$$$$
Compound 2
 OpenBabel11072204203D

 38 41  0  0  0  0  0  0  0  0999 V2000
    1.9224    0.5699    0.6325 F   0  0  0  0  0  0  0  0  0  0  0  0
    2.5950    0.1108   -0.4663 C   0  0  0  0  0  0  0  0  0  0  0  0
    3.6839   -0.5417    0.0231 F   0  0  0  0  0  0  0  0  0  0  0  0
    1.7901   -0.8409   -1.0118 F   0  0  0  0  0  0  0  0  0  0  0  0
    2.9558    1.2090   -1.4417 C   0  0  0  0  0  0  0  0  0  0  0  0
    2.5532    2.5158   -1.1546 C   0  0  0  0  0  0  0  0  0  0  0  0
    3.6498    0.9790   -2.6335 C   0  0  0  0  0  0  0  0  0  0  0  0
    2.8359    3.5881   -2.0224 C   0  0  0  0  0  0  0  0  0  0  0  0
    3.9754    2.0330   -3.5222 C   0  0  0  0  0  0  0  0  0  0  0  0
    2.4575    4.9485   -2.0336 C   0  0  0  0  0  0  0  0  0  0  0  0
    3.5636    3.3425   -3.1952 C   0  0  0  0  0  0  0  0  0  0  0  0
    1.6220    5.7493   -1.1395 C   0  0  0  0  0  0  0  0  0  0  0  0
    2.9620    5.4966   -3.1945 C   0  0  0  0  0  0  0  0  0  0  0  0
    3.7091    4.5731   -3.8564 N   0  0  0  0  0  0  0  0  0  0  0  0
    1.1070    6.8703   -1.5414 N   0  0  0  0  0  0  0  0  0  0  0  0
    1.4052    5.4281    0.3088 C   0  0  0  0  0  0  0  0  0  0  0  0
    2.5650    6.7949   -3.4771 N   0  0  0  0  0  0  0  0  0  0  0  0
    1.5533    7.3835   -2.7144 C   0  0  0  0  0  0  0  0  0  0  0  0
    3.1445    7.7149   -4.2829 N   0  0  0  0  0  0  0  0  0  0  0  0
    1.2929    8.5600   -3.2014 N   0  0  0  0  0  0  0  0  0  0  0  0
    2.3867    8.8132   -3.9918 C   0  0  0  0  0  0  0  0  0  0  0  0
    2.6642   10.2871   -4.2581 C   0  0  0  0  0  0  0  0  0  0  0  0
    3.9695   10.5439   -4.5508 F   0  0  0  0  0  0  0  0  0  0  0  0
    1.9466   10.7061   -5.3459 F   0  0  0  0  0  0  0  0  0  0  0  0
    2.2372   11.1931   -3.0688 C   0  0  0  0  0  0  0  0  0  0  0  0
    3.0633   11.0190   -1.7969 C   0  0  0  0  0  0  0  0  0  0  0  0
    1.9698    2.6831   -0.2565 H   0  0  0  0  0  0  0  0  0  0  0  0
    3.9386   -0.0420   -2.8890 H   0  0  0  0  0  0  0  0  0  0  0  0
    4.5059    1.8123   -4.4451 H   0  0  0  0  0  0  0  0  0  0  0  0
    4.1816    4.7032   -4.7402 H   0  0  0  0  0  0  0  0  0  0  0  0
    1.6751    4.4197    0.5927 H   0  0  0  0  0  0  0  0  0  0  0  0
    0.3623    5.6179    0.5720 H   0  0  0  0  0  0  0  0  0  0  0  0
    2.0393    6.1168    0.8785 H   0  0  0  0  0  0  0  0  0  0  0  0
    1.1799   11.0204   -2.8211 H   0  0  0  0  0  0  0  0  0  0  0  0
    2.2983   12.2399   -3.3751 H   0  0  0  0  0  0  0  0  0  0  0  0
    3.0179    9.9969   -1.4062 H   0  0  0  0  0  0  0  0  0  0  0  0
    2.6807   11.6851   -1.0146 H   0  0  0  0  0  0  0  0  0  0  0  0
    4.1113   11.2793   -1.9695 H   0  0  0  0  0  0  0  0  0  0  0  0
  1  2  1  0  0  0  0
  2  3  1  0  0  0  0
  2  4  1  0  0  0  0
  2  5  1  0  0  0  0
  5  6  2  0  0  0  0
  5  7  1  0  0  0  0
  6  8  1  0  0  0  0
  6 27  1  0  0  0  0
  7  9  2  0  0  0  0
  7 28  1  0  0  0  0
  8 10  1  0  0  0  0
  8 11  2  0  0  0  0
  9 11  1  0  0  0  0
  9 29  1  0  0  0  0
 10 12  1  0  0  0  0
 10 13  2  0  0  0  0
 11 14  1  0  0  0  0
 12 15  2  0  0  0  0
 12 16  1  0  0  0  0
 13 17  1  0  0  0  0
 13 14  1  0  0  0  0
 14 30  1  0  0  0  0
 15 18  1  0  0  0  0
 16 31  1  0  0  0  0
 16 32  1  0  0  0  0
 16 33  1  0  0  0  0
 17 19  1  0  0  0  0
 17 18  1  0  0  0  0
 18 20  2  0  0  0  0
 19 21  2  0  0  0  0
 20 21  1  0  0  0  0
 21 22  1  0  0  0  0
 22 23  1  0  0  0  0
 22 24  1  0  0  0  0
 22 25  1  0  0  0  0
 25 26  1  0  0  0  0
 25 34  1  0  0  0  0
 25 35  1  0  0  0  0
 26 36  1  0  0  0  0
 26 37  1  0  0  0  0
 26 38  1  0  0  0  0
M  END
>  <ID>
2

>  <Parent ID>
1

>  <Generation>
1

>  <Parent Generation>
0

>  <Child No>
7

>  <Fitness>
0.82337

>  <SkelSpheres sim score>
0.82988

>  <FragFp sim score>
0.8169

$$$$
Compound 3
 OpenBabel11072204203D

 43 45  0  0  0  0  0  0  0  0999 V2000
    3.0221    2.3042   -8.9739 F   0  0  0  0  0  0  0  0  0  0  0  0
    3.2921    1.0281   -9.3656 C   0  0  0  0  0  0  0  0  0  0  0  0
    2.4215    0.7541  -10.3761 F   0  0  0  0  0  0  0  0  0  0  0  0
    4.5277    1.0679   -9.9376 F   0  0  0  0  0  0  0  0  0  0  0  0
    3.2129    0.0209   -8.2444 C   0  0  0  0  0  0  0  0  0  0  0  0
    2.8863    0.4092   -6.9380 C   0  0  0  0  0  0  0  0  0  0  0  0
    3.5027   -1.3284   -8.4938 C   0  0  0  0  0  0  0  0  0  0  0  0
    2.8772   -0.5287   -5.9010 C   0  0  0  0  0  0  0  0  0  0  0  0
    3.4861   -2.2641   -7.4551 C   0  0  0  0  0  0  0  0  0  0  0  0
    3.1599   -1.8760   -6.1495 C   0  0  0  0  0  0  0  0  0  0  0  0
    3.2753   -2.7558   -5.0426 N   0  0  0  0  0  0  0  0  0  0  0  0
    3.0314   -4.1277   -5.1408 C   0  0  0  0  0  0  0  0  0  0  0  0
    4.0562   -5.0034   -4.7355 N   0  0  0  0  0  0  0  0  0  0  0  0
    1.8792   -4.6657   -5.5788 C   0  0  0  0  0  0  0  0  0  0  0  0
    5.2974   -4.6875   -4.2820 N   0  0  0  0  0  0  0  0  0  0  0  0
    3.9099   -6.3887   -4.8067 C   0  0  0  0  0  0  0  0  0  0  0  0
    1.7950   -6.1577   -5.5918 C   0  0  0  0  0  0  0  0  0  0  0  0
    5.8510   -5.8977   -4.0906 C   0  0  0  0  0  0  0  0  0  0  0  0
    2.7513   -6.9657   -5.2383 N   0  0  0  0  0  0  0  0  0  0  0  0
    5.0300   -6.9559   -4.4166 N   0  0  0  0  0  0  0  0  0  0  0  0
    0.4898   -6.7615   -6.0490 C   0  0  0  0  0  0  0  0  0  0  0  0
    7.2685   -6.1005   -3.6013 C   0  0  0  0  0  0  0  0  0  0  0  0
    7.9096   -4.9090   -3.3954 F   0  0  0  0  0  0  0  0  0  0  0  0
    7.2654   -6.7178   -2.3800 F   0  0  0  0  0  0  0  0  0  0  0  0
    8.1309   -6.9409   -4.5434 C   0  0  0  0  0  0  0  0  0  0  0  0
    8.3108   -6.3119   -5.9273 C   0  0  0  0  0  0  0  0  0  0  0  0
    9.2066   -7.1646   -6.8129 C   0  0  0  0  0  0  0  0  0  0  0  0
    2.6563    1.4498   -6.7133 H   0  0  0  0  0  0  0  0  0  0  0  0
    3.7709   -1.6528   -9.4987 H   0  0  0  0  0  0  0  0  0  0  0  0
    2.6459   -0.2026   -4.8889 H   0  0  0  0  0  0  0  0  0  0  0  0
    3.7631   -3.2913   -7.6778 H   0  0  0  0  0  0  0  0  0  0  0  0
    4.2021   -2.6050   -4.6183 H   0  0  0  0  0  0  0  0  0  0  0  0
    1.0340   -4.0712   -5.8966 H   0  0  0  0  0  0  0  0  0  0  0  0
   -0.2395   -5.9904   -6.3104 H   0  0  0  0  0  0  0  0  0  0  0  0
    0.0771   -7.3764   -5.2438 H   0  0  0  0  0  0  0  0  0  0  0  0
    0.6683   -7.3908   -6.9253 H   0  0  0  0  0  0  0  0  0  0  0  0
    7.7062   -7.9480   -4.6400 H   0  0  0  0  0  0  0  0  0  0  0  0
    9.1182   -7.0666   -4.0809 H   0  0  0  0  0  0  0  0  0  0  0  0
    8.7491   -5.3119   -5.8294 H   0  0  0  0  0  0  0  0  0  0  0  0
    7.3403   -6.1945   -6.4219 H   0  0  0  0  0  0  0  0  0  0  0  0
   10.2059   -7.2678   -6.3784 H   0  0  0  0  0  0  0  0  0  0  0  0
    9.3114   -6.7044   -7.8005 H   0  0  0  0  0  0  0  0  0  0  0  0
    8.7848   -8.1657   -6.9483 H   0  0  0  0  0  0  0  0  0  0  0  0
  1  2  1  0  0  0  0
  2  3  1  0  0  0  0
  2  4  1  0  0  0  0
  2  5  1  0  0  0  0
  5  6  2  0  0  0  0
  5  7  1  0  0  0  0
  6  8  1  0  0  0  0
  6 28  1  0  0  0  0
  7  9  2  0  0  0  0
  7 29  1  0  0  0  0
  8 10  2  0  0  0  0
  8 30  1  0  0  0  0
  9 10  1  0  0  0  0
  9 31  1  0  0  0  0
 10 11  1  0  0  0  0
 11 12  1  0  0  0  0
 11 32  1  0  0  0  0
 12 13  1  0  0  0  0
 12 14  2  0  0  0  0
 13 15  1  0  0  0  0
 13 16  1  0  0  0  0
 14 17  1  0  0  0  0
 14 33  1  0  0  0  0
 15 18  2  0  0  0  0
 16 19  1  0  0  0  0
 16 20  2  0  0  0  0
 17 21  1  0  0  0  0
 17 19  2  0  0  0  0
 18 22  1  0  0  0  0
 18 20  1  0  0  0  0
 21 34  1  0  0  0  0
 21 35  1  0  0  0  0
 21 36  1  0  0  0  0
 22 23  1  0  0  0  0
 22 24  1  0  0  0  0
 22 25  1  0  0  0  0
 25 26  1  0  0  0  0
 25 37  1  0  0  0  0
 25 38  1  0  0  0  0
 26 27  1  0  0  0  0
 26 39  1  0  0  0  0
 26 40  1  0  0  0  0
 27 41  1  0  0  0  0
 27 42  1  0  0  0  0
 27 43  1  0  0  0  0
M  END
>  <ID>
3

>  <Parent ID>
1

>  <Generation>
1

>  <Parent Generation>
0

>  <Child No>
1

>  <Fitness>
0.97475

>  <SkelSpheres sim score>
0.96106

>  <FragFp sim score>
0.98864

$$$$
Compound 4
 OpenBabel11072204203D

 43 45  0  0  0  0  0  0  0  0999 V2000
    2.8622    2.4066   -8.7161 F   0  0  0  0  0  0  0  0  0  0  0  0
    3.0563    1.1461   -9.1932 C   0  0  0  0  0  0  0  0  0  0  0  0
    2.1012    0.9560  -10.1463 F   0  0  0  0  0  0  0  0  0  0  0  0
    4.2447    1.1779   -9.8572 F   0  0  0  0  0  0  0  0  0  0  0  0
    3.0241    0.0831   -8.1212 C   0  0  0  0  0  0  0  0  0  0  0  0
    2.8190    0.4161   -6.7757 C   0  0  0  0  0  0  0  0  0  0  0  0
    3.2289   -1.2623   -8.4596 C   0  0  0  0  0  0  0  0  0  0  0  0
    2.8379   -0.5746   -5.7911 C   0  0  0  0  0  0  0  0  0  0  0  0
    3.2449   -2.2527   -7.4632 C   0  0  0  0  0  0  0  0  0  0  0  0
    3.0371   -1.9182   -6.1236 C   0  0  0  0  0  0  0  0  0  0  0  0
    3.1902   -2.8495   -5.0626 N   0  0  0  0  0  0  0  0  0  0  0  0
    2.9209   -4.2146   -5.1758 C   0  0  0  0  0  0  0  0  0  0  0  0
    3.9349   -5.1066   -4.7803 N   0  0  0  0  0  0  0  0  0  0  0  0
    1.7501   -4.7289   -5.5916 C   0  0  0  0  0  0  0  0  0  0  0  0
    5.1872   -4.8115   -4.3348 N   0  0  0  0  0  0  0  0  0  0  0  0
    3.7631   -6.4912   -4.8434 C   0  0  0  0  0  0  0  0  0  0  0  0
    1.6375   -6.2204   -5.6103 C   0  0  0  0  0  0  0  0  0  0  0  0
    5.7174   -6.0286   -4.1123 C   0  0  0  0  0  0  0  0  0  0  0  0
    2.5901   -7.0473   -5.2718 N   0  0  0  0  0  0  0  0  0  0  0  0
    4.8746   -7.0746   -4.4442 N   0  0  0  0  0  0  0  0  0  0  0  0
    0.3118   -6.7959   -6.0505 C   0  0  0  0  0  0  0  0  0  0  0  0
    7.1972   -6.2376   -3.7698 C   0  0  0  0  0  0  0  0  0  0  0  0
    7.7012   -5.1855   -3.0630 F   0  0  0  0  0  0  0  0  0  0  0  0
    7.3886   -7.3373   -2.9902 F   0  0  0  0  0  0  0  0  0  0  0  0
    7.9638   -6.3890   -5.0840 C   0  0  0  0  0  0  0  0  0  0  0  0
    9.4900   -6.4817   -5.0963 C   0  0  0  0  0  0  0  0  0  0  0  0
    9.9095   -6.6092   -6.5734 C   0  0  0  0  0  0  0  0  0  0  0  0
    2.6674    1.4532   -6.4823 H   0  0  0  0  0  0  0  0  0  0  0  0
    3.4064   -1.5449   -9.4937 H   0  0  0  0  0  0  0  0  0  0  0  0
    2.7100   -0.2875   -4.7458 H   0  0  0  0  0  0  0  0  0  0  0  0
    3.4496   -3.2749   -7.7592 H   0  0  0  0  0  0  0  0  0  0  0  0
    4.1354   -2.7179   -4.6557 H   0  0  0  0  0  0  0  0  0  0  0  0
    0.9043   -4.1212   -5.8801 H   0  0  0  0  0  0  0  0  0  0  0  0
   -0.4028   -6.0064   -6.3075 H   0  0  0  0  0  0  0  0  0  0  0  0
   -0.1113   -7.3953   -5.2397 H   0  0  0  0  0  0  0  0  0  0  0  0
    0.4581   -7.4318   -6.9288 H   0  0  0  0  0  0  0  0  0  0  0  0
    7.5816   -7.2861   -5.5845 H   0  0  0  0  0  0  0  0  0  0  0  0
    7.7042   -5.5247   -5.7067 H   0  0  0  0  0  0  0  0  0  0  0  0
    9.8586   -7.3481   -4.5364 H   0  0  0  0  0  0  0  0  0  0  0  0
    9.9505   -5.5849   -4.6672 H   0  0  0  0  0  0  0  0  0  0  0  0
    9.5786   -7.5737   -6.9739 H   0  0  0  0  0  0  0  0  0  0  0  0
   10.9878   -6.5292   -6.7044 H   0  0  0  0  0  0  0  0  0  0  0  0
    9.4333   -5.8255   -7.1731 H   0  0  0  0  0  0  0  0  0  0  0  0
  1  2  1  0  0  0  0
  2  3  1  0  0  0  0
  2  4  1  0  0  0  0
  2  5  1  0  0  0  0
  5  6  2  0  0  0  0
  5  7  1  0  0  0  0
  6  8  1  0  0  0  0
  6 28  1  0  0  0  0
  7  9  2  0  0  0  0
  7 29  1  0  0  0  0
  8 10  2  0  0  0  0
  8 30  1  0  0  0  0
  9 10  1  0  0  0  0
  9 31  1  0  0  0  0
 10 11  1  0  0  0  0
 11 12  1  0  0  0  0
 11 32  1  0  0  0  0
 12 13  1  0  0  0  0
 12 14  2  0  0  0  0
 13 15  1  0  0  0  0
 13 16  1  0  0  0  0
 14 17  1  0  0  0  0
 14 33  1  0  0  0  0
 15 18  2  0  0  0  0
 16 19  1  0  0  0  0
 16 20  2  0  0  0  0
 17 21  1  0  0  0  0
 17 19  2  0  0  0  0
 18 22  1  0  0  0  0
 18 20  1  0  0  0  0
 21 34  1  0  0  0  0
 21 35  1  0  0  0  0
 21 36  1  0  0  0  0
 22 23  1  0  0  0  0
 22 24  1  0  0  0  0
 22 25  1  0  0  0  0
 25 26  1  0  0  0  0
 25 27  1  0  0  0  0
 25 37  1  0  0  0  0
 26 38  1  0  0  0  0
 26 39  1  0  0  0  0
 26 40  1  0  0  0  0
 27 41  1  0  0  0  0
 27 42  1  0  0  0  0
 27 43  1  0  0  0  0
M  END
>  <ID>
4

>  <Parent ID>
1

>  <Generation>
1

>  <Parent Generation>
0

>  <Child No>
4

>  <Fitness>
0.92141

>  <SkelSpheres sim score>
0.91731

>  <FragFp sim score>
0.92553

$$$$
Compound 5
 OpenBabel11072204203D

 41 43  0  0  0  0  0  0  0  0999 V2000
    3.1067    2.2229   -9.0417 F   0  0  0  0  0  0  0  0  0  0  0  0
    3.4038    0.9451   -9.4088 C   0  0  0  0  0  0  0  0  0  0  0  0
    2.5616    0.6456  -10.4360 F   0  0  0  0  0  0  0  0  0  0  0  0
    4.6522    0.9954   -9.9522 F   0  0  0  0  0  0  0  0  0  0  0  0
    3.3117   -0.0476   -8.2757 C   0  0  0  0  0  0  0  0  0  0  0  0
    2.9467    0.3514   -6.9824 C   0  0  0  0  0  0  0  0  0  0  0  0
    3.6271   -1.3952   -8.5007 C   0  0  0  0  0  0  0  0  0  0  0  0
    2.9234   -0.5744   -5.9340 C   0  0  0  0  0  0  0  0  0  0  0  0
    3.5966   -2.3180   -7.4511 C   0  0  0  0  0  0  0  0  0  0  0  0
    3.2295   -1.9206   -6.1595 C   0  0  0  0  0  0  0  0  0  0  0  0
    3.3269   -2.7916   -5.0424 N   0  0  0  0  0  0  0  0  0  0  0  0
    3.0806   -4.1661   -5.1431 C   0  0  0  0  0  0  0  0  0  0  0  0
    4.0955   -5.0471   -4.7081 N   0  0  0  0  0  0  0  0  0  0  0  0
    1.9360   -4.6969   -5.6101 C   0  0  0  0  0  0  0  0  0  0  0  0
    5.3195   -4.7127   -4.2011 N   0  0  0  0  0  0  0  0  0  0  0  0
    3.9288   -6.4297   -4.7840 C   0  0  0  0  0  0  0  0  0  0  0  0
    1.8384   -6.1888   -5.6248 C   0  0  0  0  0  0  0  0  0  0  0  0
    5.9319   -5.8909   -3.9789 C   0  0  0  0  0  0  0  0  0  0  0  0
    2.7791   -7.0032   -5.2431 N   0  0  0  0  0  0  0  0  0  0  0  0
    5.1014   -6.9811   -4.3285 C   0  0  0  0  0  0  0  0  0  0  0  0
    0.5457   -6.7859   -6.1200 C   0  0  0  0  0  0  0  0  0  0  0  0
    7.3229   -5.9808   -3.4019 C   0  0  0  0  0  0  0  0  0  0  0  0
    7.6879   -7.2871   -3.2248 F   0  0  0  0  0  0  0  0  0  0  0  0
    8.2368   -5.4716   -4.2805 F   0  0  0  0  0  0  0  0  0  0  0  0
    7.4943   -5.2576   -2.0682 C   0  0  0  0  0  0  0  0  0  0  0  0
    6.5987   -5.8072   -0.9662 C   0  0  0  0  0  0  0  0  0  0  0  0
    2.6963    1.3914   -6.7771 H   0  0  0  0  0  0  0  0  0  0  0  0
    3.9258   -1.7288   -9.4937 H   0  0  0  0  0  0  0  0  0  0  0  0
    2.6602   -0.2402   -4.9325 H   0  0  0  0  0  0  0  0  0  0  0  0
    3.8929   -3.3446   -7.6527 H   0  0  0  0  0  0  0  0  0  0  0  0
    4.2543   -2.6538   -4.6168 H   0  0  0  0  0  0  0  0  0  0  0  0
    1.1035   -4.0972   -5.9484 H   0  0  0  0  0  0  0  0  0  0  0  0
    5.3252   -8.0360   -4.2517 H   0  0  0  0  0  0  0  0  0  0  0  0
   -0.1733   -6.0129   -6.4030 H   0  0  0  0  0  0  0  0  0  0  0  0
    0.1087   -7.4007   -5.3277 H   0  0  0  0  0  0  0  0  0  0  0  0
    0.7490   -7.4166   -6.9904 H   0  0  0  0  0  0  0  0  0  0  0  0
    7.3118   -4.1841   -2.1920 H   0  0  0  0  0  0  0  0  0  0  0  0
    8.5388   -5.3592   -1.7493 H   0  0  0  0  0  0  0  0  0  0  0  0
    5.5389   -5.6794   -1.2079 H   0  0  0  0  0  0  0  0  0  0  0  0
    6.7903   -5.2789   -0.0270 H   0  0  0  0  0  0  0  0  0  0  0  0
    6.7876   -6.8726   -0.8007 H   0  0  0  0  0  0  0  0  0  0  0  0
  1  2  1  0  0  0  0
  2  3  1  0  0  0  0
  2  4  1  0  0  0  0
  2  5  1  0  0  0  0
  5  6  2  0  0  0  0
  5  7  1  0  0  0  0
  6  8  1  0  0  0  0
  6 27  1  0  0  0  0
  7  9  2  0  0  0  0
  7 28  1  0  0  0  0
  8 10  2  0  0  0  0
  8 29  1  0  0  0  0
  9 10  1  0  0  0  0
  9 30  1  0  0  0  0
 10 11  1  0  0  0  0
 11 12  1  0  0  0  0
 11 31  1  0  0  0  0
 12 13  1  0  0  0  0
 12 14  2  0  0  0  0
 13 15  1  0  0  0  0
 13 16  1  0  0  0  0
 14 17  1  0  0  0  0
 14 32  1  0  0  0  0
 15 18  2  0  0  0  0
 16 19  1  0  0  0  0
 16 20  2  0  0  0  0
 17 21  1  0  0  0  0
 17 19  2  0  0  0  0
 18 22  1  0  0  0  0
 18 20  1  0  0  0  0
 20 33  1  0  0  0  0
 21 34  1  0  0  0  0
 21 35  1  0  0  0  0
 21 36  1  0  0  0  0
 22 23  1  0  0  0  0
 22 24  1  0  0  0  0
 22 25  1  0  0  0  0
 25 26  1  0  0  0  0
 25 37  1  0  0  0  0
 25 38  1  0  0  0  0
 26 39  1  0  0  0  0
 26 40  1  0  0  0  0
 26 41  1  0  0  0  0
M  END
>  <ID>
5

>  <Parent ID>
1

>  <Generation>
1

>  <Parent Generation>
0

>  <Child No>
3

>  <Fitness>
0.92986

>  <SkelSpheres sim score>
0.94951

>  <FragFp sim score>
0.91061

$$$$
Compound 6
 OpenBabel11072204203D

 43 45  0  0  0  0  0  0  0  0999 V2000
    1.5828    2.0414   -1.1243 F   0  0  0  0  0  0  0  0  0  0  0  0
    0.7968    0.9675   -1.4200 C   0  0  0  0  0  0  0  0  0  0  0  0
    0.3407    0.4983   -0.2270 F   0  0  0  0  0  0  0  0  0  0  0  0
   -0.2914    1.4755   -2.0645 F   0  0  0  0  0  0  0  0  0  0  0  0
    1.5027   -0.0884   -2.2348 C   0  0  0  0  0  0  0  0  0  0  0  0
    2.8500    0.0565   -2.5900 C   0  0  0  0  0  0  0  0  0  0  0  0
    0.8033   -1.2177   -2.6865 C   0  0  0  0  0  0  0  0  0  0  0  0
    3.4684   -0.8812   -3.4195 C   0  0  0  0  0  0  0  0  0  0  0  0
    1.4226   -2.1538   -3.5214 C   0  0  0  0  0  0  0  0  0  0  0  0
    2.7600   -1.9896   -3.9091 C   0  0  0  0  0  0  0  0  0  0  0  0
    3.4102   -2.8561   -4.9621 C   0  0  0  0  0  0  0  0  0  0  0  0
    2.9054   -4.2215   -4.9718 N   0  0  0  0  0  0  0  0  0  0  0  0
    2.8993   -5.0417   -6.1071 C   0  0  0  0  0  0  0  0  0  0  0  0
    3.1311   -6.4286   -5.9390 N   0  0  0  0  0  0  0  0  0  0  0  0
    2.6744   -4.6034   -7.3594 C   0  0  0  0  0  0  0  0  0  0  0  0
    3.4089   -7.1086   -4.7930 N   0  0  0  0  0  0  0  0  0  0  0  0
    3.1396   -7.3098   -7.0247 C   0  0  0  0  0  0  0  0  0  0  0  0
    2.7036   -5.6146   -8.4597 C   0  0  0  0  0  0  0  0  0  0  0  0
    3.5384   -8.3739   -5.2298 C   0  0  0  0  0  0  0  0  0  0  0  0
    2.9252   -6.8845   -8.3033 N   0  0  0  0  0  0  0  0  0  0  0  0
    3.3976   -8.5232   -6.5919 N   0  0  0  0  0  0  0  0  0  0  0  0
    2.4599   -5.1003   -9.8577 C   0  0  0  0  0  0  0  0  0  0  0  0
    3.8629   -9.5456   -4.3319 C   0  0  0  0  0  0  0  0  0  0  0  0
    3.9930   -9.1707   -3.0240 F   0  0  0  0  0  0  0  0  0  0  0  0
    2.8374  -10.4531   -4.3424 F   0  0  0  0  0  0  0  0  0  0  0  0
    5.1368  -10.2898   -4.7378 C   0  0  0  0  0  0  0  0  0  0  0  0
    6.3900   -9.4291   -4.6612 C   0  0  0  0  0  0  0  0  0  0  0  0
    3.4191    0.9202   -2.2491 H   0  0  0  0  0  0  0  0  0  0  0  0
   -0.2432   -1.3558   -2.4160 H   0  0  0  0  0  0  0  0  0  0  0  0
    4.5041   -0.7185   -3.7133 H   0  0  0  0  0  0  0  0  0  0  0  0
    0.8424   -2.9965   -3.8941 H   0  0  0  0  0  0  0  0  0  0  0  0
    4.4948   -2.8889   -4.8085 H   0  0  0  0  0  0  0  0  0  0  0  0
    3.2292   -2.3592   -5.9224 H   0  0  0  0  0  0  0  0  0  0  0  0
    3.1762   -4.7502   -4.1343 H   0  0  0  0  0  0  0  0  0  0  0  0
    2.4615   -3.5741   -7.6057 H   0  0  0  0  0  0  0  0  0  0  0  0
    2.3005   -4.0181   -9.8663 H   0  0  0  0  0  0  0  0  0  0  0  0
    1.5744   -5.5890  -10.2723 H   0  0  0  0  0  0  0  0  0  0  0  0
    3.3258   -5.3315  -10.4841 H   0  0  0  0  0  0  0  0  0  0  0  0
    5.0321  -10.7000   -5.7494 H   0  0  0  0  0  0  0  0  0  0  0  0
    5.2660  -11.1494   -4.0684 H   0  0  0  0  0  0  0  0  0  0  0  0
    6.3414   -8.5864   -5.3577 H   0  0  0  0  0  0  0  0  0  0  0  0
    7.2715  -10.0241   -4.9207 H   0  0  0  0  0  0  0  0  0  0  0  0
    6.5341   -9.0340   -3.6508 H   0  0  0  0  0  0  0  0  0  0  0  0
  1  2  1  0  0  0  0
  2  3  1  0  0  0  0
  2  4  1  0  0  0  0
  2  5  1  0  0  0  0
  5  6  2  0  0  0  0
  5  7  1  0  0  0  0
  6  8  1  0  0  0  0
  6 28  1  0  0  0  0
  7  9  2  0  0  0  0
  7 29  1  0  0  0  0
  8 10  2  0  0  0  0
  8 30  1  0  0  0  0
  9 10  1  0  0  0  0
  9 31  1  0  0  0  0
 10 11  1  0  0  0  0
 11 12  1  0  0  0  0
 11 32  1  0  0  0  0
 11 33  1  0  0  0  0
 12 13  1  0  0  0  0
 12 34  1  0  0  0  0
 13 14  1  0  0  0  0
 13 15  2  0  0  0  0
 14 16  1  0  0  0  0
 14 17  1  0  0  0  0
 15 18  1  0  0  0  0
 15 35  1  0  0  0  0
 16 19  2  0  0  0  0
 17 20  1  0  0  0  0
 17 21  2  0  0  0  0
 18 22  1  0  0  0  0
 18 20  2  0  0  0  0
 19 23  1  0  0  0  0
 19 21  1  0  0  0  0
 22 36  1  0  0  0  0
 22 37  1  0  0  0  0
 22 38  1  0  0  0  0
 23 24  1  0  0  0  0
 23 25  1  0  0  0  0
 23 26  1  0  0  0  0
 26 27  1  0  0  0  0
 26 39  1  0  0  0  0
 26 40  1  0  0  0  0
 27 41  1  0  0  0  0
 27 42  1  0  0  0  0
 27 43  1  0  0  0  0
M  END
>  <ID>
6

>  <Parent ID>
1

>  <Generation>
1

>  <Parent Generation>
0

>  <Child No>
6

>  <Fitness>
0.84662

>  <SkelSpheres sim score>
0.93367

>  <FragFp sim score>
0.76768

$$$$
Compound 7
 OpenBabel11072204203D

 44 45  0  0  0  0  0  0  0  0999 V2000
    5.6307    6.4609   -5.9712 F   0  0  0  0  0  0  0  0  0  0  0  0
    6.4093    5.3964   -6.3127 C   0  0  0  0  0  0  0  0  0  0  0  0
    6.6119    5.5037   -7.6568 F   0  0  0  0  0  0  0  0  0  0  0  0
    7.6220    5.6175   -5.7358 F   0  0  0  0  0  0  0  0  0  0  0  0
    5.8102    4.0623   -5.9329 C   0  0  0  0  0  0  0  0  0  0  0  0
    4.5622    3.9667   -5.3038 C   0  0  0  0  0  0  0  0  0  0  0  0
    6.4924    2.8802   -6.2508 C   0  0  0  0  0  0  0  0  0  0  0  0
    3.9650    2.7179   -5.0827 C   0  0  0  0  0  0  0  0  0  0  0  0
    5.8928    1.6366   -6.0294 C   0  0  0  0  0  0  0  0  0  0  0  0
    4.5912    1.5447   -5.5164 C   0  0  0  0  0  0  0  0  0  0  0  0
    3.9230    0.2958   -5.3685 N   0  0  0  0  0  0  0  0  0  0  0  0
    4.1182   -0.7613   -6.2919 C   0  0  0  0  0  0  0  0  0  0  0  0
    4.3567   -2.0827   -5.7933 N   0  0  0  0  0  0  0  0  0  0  0  0
    4.1171   -0.5261   -7.6323 C   0  0  0  0  0  0  0  0  0  0  0  0
    5.0804   -3.0312   -6.4559 N   0  0  0  0  0  0  0  0  0  0  0  0
    3.9374   -2.6620   -4.5784 C   0  0  0  0  0  0  0  0  0  0  0  0
    4.2915   -1.5420   -8.7383 C   0  0  0  0  0  0  0  0  0  0  0  0
    4.9707   -4.1225   -5.7005 C   0  0  0  0  0  0  0  0  0  0  0  0
    4.3174   -3.9186   -4.5129 N   0  0  0  0  0  0  0  0  0  0  0  0
    3.1576   -2.0454   -3.6560 N   0  0  0  0  0  0  0  0  0  0  0  0
    3.5318   -1.2057  -10.0065 C   0  0  0  0  0  0  0  0  0  0  0  0
    5.5905   -5.4255   -6.1380 C   0  0  0  0  0  0  0  0  0  0  0  0
    5.2531   -6.4637   -5.3224 F   0  0  0  0  0  0  0  0  0  0  0  0
    5.1242   -5.7811   -7.3800 F   0  0  0  0  0  0  0  0  0  0  0  0
    7.1155   -5.3476   -6.2353 C   0  0  0  0  0  0  0  0  0  0  0  0
    7.7744   -5.0663   -4.8933 C   0  0  0  0  0  0  0  0  0  0  0  0
    4.0258    4.8692   -5.0134 H   0  0  0  0  0  0  0  0  0  0  0  0
    7.4810    2.9205   -6.7055 H   0  0  0  0  0  0  0  0  0  0  0  0
    2.9804    2.6728   -4.6244 H   0  0  0  0  0  0  0  0  0  0  0  0
    6.4436    0.7392   -6.3026 H   0  0  0  0  0  0  0  0  0  0  0  0
    4.0427   -0.0224   -4.3998 H   0  0  0  0  0  0  0  0  0  0  0  0
    3.9573    0.5000   -7.9785 H   0  0  0  0  0  0  0  0  0  0  0  0
    3.9270   -2.5270   -8.4325 H   0  0  0  0  0  0  0  0  0  0  0  0
    5.3604   -1.6258   -8.9707 H   0  0  0  0  0  0  0  0  0  0  0  0
    2.4337   -1.4187   -4.0037 H   0  0  0  0  0  0  0  0  0  0  0  0
    2.7578   -2.6999   -2.9807 H   0  0  0  0  0  0  0  0  0  0  0  0
    2.4539   -1.1652   -9.8182 H   0  0  0  0  0  0  0  0  0  0  0  0
    3.7124   -1.9821  -10.7574 H   0  0  0  0  0  0  0  0  0  0  0  0
    3.8528   -0.2462  -10.4247 H   0  0  0  0  0  0  0  0  0  0  0  0
    7.4133   -4.5770   -6.9601 H   0  0  0  0  0  0  0  0  0  0  0  0
    7.4963   -6.2974   -6.6269 H   0  0  0  0  0  0  0  0  0  0  0  0
    7.4510   -4.1050   -4.4805 H   0  0  0  0  0  0  0  0  0  0  0  0
    8.8614   -5.0297   -5.0064 H   0  0  0  0  0  0  0  0  0  0  0  0
    7.5298   -5.8503   -4.1709 H   0  0  0  0  0  0  0  0  0  0  0  0
  1  2  1  0  0  0  0
  2  3  1  0  0  0  0
  2  4  1  0  0  0  0
  2  5  1  0  0  0  0
  5  6  2  0  0  0  0
  5  7  1  0  0  0  0
  6  8  1  0  0  0  0
  6 27  1  0  0  0  0
  7  9  2  0  0  0  0
  7 28  1  0  0  0  0
  8 10  2  0  0  0  0
  8 29  1  0  0  0  0
  9 10  1  0  0  0  0
  9 30  1  0  0  0  0
 10 11  1  0  0  0  0
 11 12  1  0  0  0  0
 11 31  1  0  0  0  0
 12 13  1  0  0  0  0
 12 14  2  0  0  0  0
 13 15  1  0  0  0  0
 13 16  1  0  0  0  0
 14 17  1  0  0  0  0
 14 32  1  0  0  0  0
 15 18  2  0  0  0  0
 16 19  2  0  0  0  0
 16 20  1  0  0  0  0
 17 21  1  0  0  0  0
 17 33  1  0  0  0  0
 17 34  1  0  0  0  0
 18 22  1  0  0  0  0
 18 19  1  0  0  0  0
 20 35  1  0  0  0  0
 20 36  1  0  0  0  0
 21 37  1  0  0  0  0
 21 38  1  0  0  0  0
 21 39  1  0  0  0  0
 22 23  1  0  0  0  0
 22 24  1  0  0  0  0
 22 25  1  0  0  0  0
 25 26  1  0  0  0  0
 25 40  1  0  0  0  0
 25 41  1  0  0  0  0
 26 42  1  0  0  0  0
 26 43  1  0  0  0  0
 26 44  1  0  0  0  0
M  END
>  <ID>
7

>  <Parent ID>
1

>  <Generation>
1

>  <Parent Generation>
0

>  <Child No>
5

>  <Fitness>
0.91567

>  <SkelSpheres sim score>
0.88896

>  <FragFp sim score>
0.94318

$$$$
Compound 8
 OpenBabel11072204203D

 41 43  0  0  0  0  0  0  0  0999 V2000
    7.5364   -0.0970   -0.4868 F   0  0  0  0  0  0  0  0  0  0  0  0
    6.9194    1.0530   -0.8808 C   0  0  0  0  0  0  0  0  0  0  0  0
    6.3053    1.5465    0.2286 F   0  0  0  0  0  0  0  0  0  0  0  0
    7.9231    1.9261   -1.1747 F   0  0  0  0  0  0  0  0  0  0  0  0
    5.9729    0.8622   -2.0408 C   0  0  0  0  0  0  0  0  0  0  0  0
    5.8013   -0.3959   -2.6232 C   0  0  0  0  0  0  0  0  0  0  0  0
    5.2736    1.9483   -2.5855 C   0  0  0  0  0  0  0  0  0  0  0  0
    5.0184   -0.5470   -3.7721 C   0  0  0  0  0  0  0  0  0  0  0  0
    4.4841    1.7890   -3.7346 C   0  0  0  0  0  0  0  0  0  0  0  0
    4.3983    0.5507   -4.3865 C   0  0  0  0  0  0  0  0  0  0  0  0
    3.6518    0.4579   -5.5989 N   0  0  0  0  0  0  0  0  0  0  0  0
    3.6696   -0.6752   -6.4214 C   0  0  0  0  0  0  0  0  0  0  0  0
    4.1933   -0.5604   -7.7346 N   0  0  0  0  0  0  0  0  0  0  0  0
    3.2018   -1.8805   -6.0407 C   0  0  0  0  0  0  0  0  0  0  0  0
    4.6276    0.5476   -8.4050 N   0  0  0  0  0  0  0  0  0  0  0  0
    4.3222   -1.6848   -8.5655 C   0  0  0  0  0  0  0  0  0  0  0  0
    3.4551   -2.9938   -6.9723 C   0  0  0  0  0  0  0  0  0  0  0  0
    4.9232    0.0529   -9.6243 C   0  0  0  0  0  0  0  0  0  0  0  0
    3.9842   -2.9388   -8.1495 N   0  0  0  0  0  0  0  0  0  0  0  0
    4.8021   -1.3119   -9.7281 N   0  0  0  0  0  0  0  0  0  0  0  0
    3.0948   -4.1486   -6.3640 O   0  0  0  0  0  0  0  0  0  0  0  0
    5.3280    0.8909  -10.8220 C   0  0  0  0  0  0  0  0  0  0  0  0
    3.4313   -5.3565   -7.0539 C   0  0  0  0  0  0  0  0  0  0  0  0
    4.8277    0.3483  -11.9743 F   0  0  0  0  0  0  0  0  0  0  0  0
    4.7884    2.1444  -10.7520 F   0  0  0  0  0  0  0  0  0  0  0  0
    6.8421    1.0192  -10.9755 C   0  0  0  0  0  0  0  0  0  0  0  0
    7.2177    1.8267  -12.2139 C   0  0  0  0  0  0  0  0  0  0  0  0
    6.2996   -1.2704   -2.2064 H   0  0  0  0  0  0  0  0  0  0  0  0
    5.3595    2.9341   -2.1297 H   0  0  0  0  0  0  0  0  0  0  0  0
    4.9538   -1.5465   -4.1871 H   0  0  0  0  0  0  0  0  0  0  0  0
    3.9592    2.6554   -4.1320 H   0  0  0  0  0  0  0  0  0  0  0  0
    3.8000    1.3105   -6.1505 H   0  0  0  0  0  0  0  0  0  0  0  0
    2.7354   -2.0716   -5.0839 H   0  0  0  0  0  0  0  0  0  0  0  0
    3.0922   -6.1976   -6.4423 H   0  0  0  0  0  0  0  0  0  0  0  0
    4.5165   -5.4353   -7.1756 H   0  0  0  0  0  0  0  0  0  0  0  0
    2.9228   -5.4000   -8.0208 H   0  0  0  0  0  0  0  0  0  0  0  0
    7.3005    0.0261  -11.0563 H   0  0  0  0  0  0  0  0  0  0  0  0
    7.2674    1.5103  -10.0928 H   0  0  0  0  0  0  0  0  0  0  0  0
    6.8556    1.3412  -13.1263 H   0  0  0  0  0  0  0  0  0  0  0  0
    8.3056    1.9206  -12.2923 H   0  0  0  0  0  0  0  0  0  0  0  0
    6.7935    2.8350  -12.1721 H   0  0  0  0  0  0  0  0  0  0  0  0
  1  2  1  0  0  0  0
  2  3  1  0  0  0  0
  2  4  1  0  0  0  0
  2  5  1  0  0  0  0
  5  6  2  0  0  0  0
  5  7  1  0  0  0  0
  6  8  1  0  0  0  0
  6 28  1  0  0  0  0
  7  9  2  0  0  0  0
  7 29  1  0  0  0  0
  8 10  2  0  0  0  0
  8 30  1  0  0  0  0
  9 10  1  0  0  0  0
  9 31  1  0  0  0  0
 10 11  1  0  0  0  0
 11 12  1  0  0  0  0
 11 32  1  0  0  0  0
 12 13  1  0  0  0  0
 12 14  2  0  0  0  0
 13 15  1  0  0  0  0
 13 16  1  0  0  0  0
 14 17  1  0  0  0  0
 14 33  1  0  0  0  0
 15 18  2  0  0  0  0
 16 19  1  0  0  0  0
 16 20  2  0  0  0  0
 17 21  1  0  0  0  0
 17 19  2  0  0  0  0
 18 22  1  0  0  0  0
 18 20  1  0  0  0  0
 21 23  1  0  0  0  0
 22 24  1  0  0  0  0
 22 25  1  0  0  0  0
 22 26  1  0  0  0  0
 23 34  1  0  0  0  0
 23 35  1  0  0  0  0
 23 36  1  0  0  0  0
 26 27  1  0  0  0  0
 26 37  1  0  0  0  0
 26 38  1  0  0  0  0
 27 39  1  0  0  0  0
 27 40  1  0  0  0  0
 27 41  1  0  0  0  0
M  END
>  <ID>
8

>  <Parent ID>
1

>  <Generation>
1

>  <Parent Generation>
0

>  <Child No>
2

>  <Fitness>
0.9395

>  <SkelSpheres sim score>
0.93367

>  <FragFp sim score>
0.94536

$$$$
Compound 9
 OpenBabel11072204203D

 46 48  0  0  0  0  0  0  0  0999 V2000
    7.5457   -0.0398   -0.5045 F   0  0  0  0  0  0  0  0  0  0  0  0
    6.9193    1.1030   -0.9029 C   0  0  0  0  0  0  0  0  0  0  0  0
    6.3035    1.5975    0.2044 F   0  0  0  0  0  0  0  0  0  0  0  0
    7.9141    1.9827   -1.2060 F   0  0  0  0  0  0  0  0  0  0  0  0
    5.9699    0.8968   -2.0577 C   0  0  0  0  0  0  0  0  0  0  0  0
    5.8234   -0.3618   -2.6450 C   0  0  0  0  0  0  0  0  0  0  0  0
    5.2465    1.9722   -2.5924 C   0  0  0  0  0  0  0  0  0  0  0  0
    5.0372   -0.5218   -3.7889 C   0  0  0  0  0  0  0  0  0  0  0  0
    4.4526    1.8033   -3.7357 C   0  0  0  0  0  0  0  0  0  0  0  0
    4.3859    0.5662   -4.3900 C   0  0  0  0  0  0  0  0  0  0  0  0
    3.6320    0.4651   -5.5981 N   0  0  0  0  0  0  0  0  0  0  0  0
    3.6550   -0.6735   -6.4081 C   0  0  0  0  0  0  0  0  0  0  0  0
    4.1540   -0.5655   -7.7263 N   0  0  0  0  0  0  0  0  0  0  0  0
    3.2144   -1.8810   -6.0062 C   0  0  0  0  0  0  0  0  0  0  0  0
    4.5560    0.5431   -8.4090 N   0  0  0  0  0  0  0  0  0  0  0  0
    4.2749   -1.6905   -8.5500 C   0  0  0  0  0  0  0  0  0  0  0  0
    3.4934   -3.0356   -6.9084 C   0  0  0  0  0  0  0  0  0  0  0  0
    4.8898    0.0374   -9.6112 C   0  0  0  0  0  0  0  0  0  0  0  0
    3.9708   -2.9441   -8.1127 N   0  0  0  0  0  0  0  0  0  0  0  0
    4.7272   -1.3214   -9.7245 N   0  0  0  0  0  0  0  0  0  0  0  0
    3.2411   -4.4095   -6.3409 C   0  0  0  0  0  0  0  0  0  0  0  0
    5.3199    0.8686  -10.8046 C   0  0  0  0  0  0  0  0  0  0  0  0
    5.3898    2.2017  -10.5099 F   0  0  0  0  0  0  0  0  0  0  0  0
    6.5840    0.5220  -11.1986 F   0  0  0  0  0  0  0  0  0  0  0  0
    4.3951    0.6936  -12.0140 C   0  0  0  0  0  0  0  0  0  0  0  0
    2.9578    1.1453  -11.7374 C   0  0  0  0  0  0  0  0  0  0  0  0
    2.0655    0.9725  -12.9662 C   0  0  0  0  0  0  0  0  0  0  0  0
    0.6374    1.4069  -12.6744 C   0  0  0  0  0  0  0  0  0  0  0  0
    6.3456   -1.2272   -2.2382 H   0  0  0  0  0  0  0  0  0  0  0  0
    5.3178    2.9574   -2.1334 H   0  0  0  0  0  0  0  0  0  0  0  0
    4.9994   -1.5181   -4.2140 H   0  0  0  0  0  0  0  0  0  0  0  0
    3.9104    2.6609   -4.1285 H   0  0  0  0  0  0  0  0  0  0  0  0
    3.7931    1.3108   -6.1583 H   0  0  0  0  0  0  0  0  0  0  0  0
    2.7647   -2.0517   -5.0376 H   0  0  0  0  0  0  0  0  0  0  0  0
    2.9742   -4.3606   -5.2835 H   0  0  0  0  0  0  0  0  0  0  0  0
    4.1527   -5.0062   -6.4395 H   0  0  0  0  0  0  0  0  0  0  0  0
    2.4315   -4.8904   -6.8972 H   0  0  0  0  0  0  0  0  0  0  0  0
    4.4027   -0.3542  -12.3406 H   0  0  0  0  0  0  0  0  0  0  0  0
    4.8002    1.2780  -12.8497 H   0  0  0  0  0  0  0  0  0  0  0  0
    2.9579    2.1974  -11.4282 H   0  0  0  0  0  0  0  0  0  0  0  0
    2.5347    0.5652  -10.9090 H   0  0  0  0  0  0  0  0  0  0  0  0
    2.0637   -0.0775  -13.2813 H   0  0  0  0  0  0  0  0  0  0  0  0
    2.4597    1.5628  -13.8011 H   0  0  0  0  0  0  0  0  0  0  0  0
    0.2048    0.8128  -11.8628 H   0  0  0  0  0  0  0  0  0  0  0  0
    0.0109    1.2757  -13.5620 H   0  0  0  0  0  0  0  0  0  0  0  0
    0.6001    2.4618  -12.3843 H   0  0  0  0  0  0  0  0  0  0  0  0
  1  2  1  0  0  0  0
  2  3  1  0  0  0  0
  2  4  1  0  0  0  0
  2  5  1  0  0  0  0
  5  6  2  0  0  0  0
  5  7  1  0  0  0  0
  6  8  1  0  0  0  0
  6 29  1  0  0  0  0
  7  9  2  0  0  0  0
  7 30  1  0  0  0  0
  8 10  2  0  0  0  0
  8 31  1  0  0  0  0
  9 10  1  0  0  0  0
  9 32  1  0  0  0  0
 10 11  1  0  0  0  0
 11 12  1  0  0  0  0
 11 33  1  0  0  0  0
 12 13  1  0  0  0  0
 12 14  2  0  0  0  0
 13 15  1  0  0  0  0
 13 16  1  0  0  0  0
 14 17  1  0  0  0  0
 14 34  1  0  0  0  0
 15 18  2  0  0  0  0
 16 19  1  0  0  0  0
 16 20  2  0  0  0  0
 17 21  1  0  0  0  0
 17 19  2  0  0  0  0
 18 22  1  0  0  0  0
 18 20  1  0  0  0  0
 21 35  1  0  0  0  0
 21 36  1  0  0  0  0
 21 37  1  0  0  0  0
 22 23  1  0  0  0  0
 22 24  1  0  0  0  0
 22 25  1  0  0  0  0
 25 26  1  0  0  0  0
 25 38  1  0  0  0  0
 25 39  1  0  0  0  0
 26 27  1  0  0  0  0
 26 40  1  0  0  0  0
 26 41  1  0  0  0  0
 27 28  1  0  0  0  0
 27 42  1  0  0  0  0
 27 43  1  0  0  0  0
 28 44  1  0  0  0  0
 28 45  1  0  0  0  0
 28 46  1  0  0  0  0
M  END
>  <ID>
9

>  <Parent ID>
3

>  <Generation>
2

>  <Parent Generation>
1

>  <Child No>
6

>  <Fitness>
0.93972

>  <SkelSpheres sim score>
0.94905

>  <FragFp sim score>
0.93048

$$$$
Compound 10
 OpenBabel11072204203D

 43 45  0  0  0  0  0  0  0  0999 V2000
    7.3748    0.6985   -0.5638 F   0  0  0  0  0  0  0  0  0  0  0  0
    6.6538    1.8201   -0.2784 C   0  0  0  0  0  0  0  0  0  0  0  0
    6.0890    1.6024    0.9392 F   0  0  0  0  0  0  0  0  0  0  0  0
    7.5710    2.8107   -0.0984 F   0  0  0  0  0  0  0  0  0  0  0  0
    5.6414    2.1689   -1.3416 C   0  0  0  0  0  0  0  0  0  0  0  0
    5.5242    1.3899   -2.4946 C   0  0  0  0  0  0  0  0  0  0  0  0
    4.8271    3.3037   -1.2165 C   0  0  0  0  0  0  0  0  0  0  0  0
    4.6774    1.7858   -3.5321 C   0  0  0  0  0  0  0  0  0  0  0  0
    3.9721    3.6908   -2.2587 C   0  0  0  0  0  0  0  0  0  0  0  0
    3.9333    2.9734   -3.4610 C   0  0  0  0  0  0  0  0  0  0  0  0
    3.1141    3.4521   -4.5265 N   0  0  0  0  0  0  0  0  0  0  0  0
    3.1670    2.9073   -5.8129 C   0  0  0  0  0  0  0  0  0  0  0  0
    3.6046    3.7208   -6.8838 N   0  0  0  0  0  0  0  0  0  0  0  0
    2.8226    1.6385   -6.0961 C   0  0  0  0  0  0  0  0  0  0  0  0
    3.9091    5.0512   -6.8838 N   0  0  0  0  0  0  0  0  0  0  0  0
    3.7849    3.1940   -8.1665 C   0  0  0  0  0  0  0  0  0  0  0  0
    3.1461    1.1366   -7.4629 C   0  0  0  0  0  0  0  0  0  0  0  0
    4.1781    5.2821   -8.1878 C   0  0  0  0  0  0  0  0  0  0  0  0
    3.6007    1.8682   -8.4363 N   0  0  0  0  0  0  0  0  0  0  0  0
    4.1611    4.1551   -8.9772 N   0  0  0  0  0  0  0  0  0  0  0  0
    3.0064   -0.3571   -7.6793 C   0  0  0  0  0  0  0  0  0  0  0  0
    4.4614    6.6514   -8.7743 C   0  0  0  0  0  0  0  0  0  0  0  0
    4.2799   -1.0756   -7.2588 C   0  0  0  0  0  0  0  0  0  0  0  0
    3.9610    6.7432  -10.0434 F   0  0  0  0  0  0  0  0  0  0  0  0
    3.8234    7.6316   -8.0650 F   0  0  0  0  0  0  0  0  0  0  0  0
    5.9524    6.9827   -8.8227 C   0  0  0  0  0  0  0  0  0  0  0  0
    6.2101    8.3500   -9.4481 C   0  0  0  0  0  0  0  0  0  0  0  0
    6.1143    0.4822   -2.6130 H   0  0  0  0  0  0  0  0  0  0  0  0
    4.8727    3.9084   -0.3118 H   0  0  0  0  0  0  0  0  0  0  0  0
    4.6652    1.1531   -4.4117 H   0  0  0  0  0  0  0  0  0  0  0  0
    3.3593    4.5808   -2.1313 H   0  0  0  0  0  0  0  0  0  0  0  0
    3.1815    4.4760   -4.5650 H   0  0  0  0  0  0  0  0  0  0  0  0
    2.4325    0.9528   -5.3548 H   0  0  0  0  0  0  0  0  0  0  0  0
    2.7922   -0.5486   -8.7351 H   0  0  0  0  0  0  0  0  0  0  0  0
    2.1597   -0.7333   -7.0943 H   0  0  0  0  0  0  0  0  0  0  0  0
    5.1398   -0.7314   -7.8431 H   0  0  0  0  0  0  0  0  0  0  0  0
    4.1764   -2.1555   -7.4037 H   0  0  0  0  0  0  0  0  0  0  0  0
    4.5069   -0.8966   -6.2018 H   0  0  0  0  0  0  0  0  0  0  0  0
    6.4883    6.2265   -9.4095 H   0  0  0  0  0  0  0  0  0  0  0  0
    6.3714    6.9762   -7.8105 H   0  0  0  0  0  0  0  0  0  0  0  0
    5.8525    8.3866  -10.4820 H   0  0  0  0  0  0  0  0  0  0  0  0
    7.2831    8.5686   -9.4560 H   0  0  0  0  0  0  0  0  0  0  0  0
    5.7092    9.1437   -8.8843 H   0  0  0  0  0  0  0  0  0  0  0  0
  1  2  1  0  0  0  0
  2  3  1  0  0  0  0
  2  4  1  0  0  0  0
  2  5  1  0  0  0  0
  5  6  2  0  0  0  0
  5  7  1  0  0  0  0
  6  8  1  0  0  0  0
  6 28  1  0  0  0  0
  7  9  2  0  0  0  0
  7 29  1  0  0  0  0
  8 10  2  0  0  0  0
  8 30  1  0  0  0  0
  9 10  1  0  0  0  0
  9 31  1  0  0  0  0
 10 11  1  0  0  0  0
 11 12  1  0  0  0  0
 11 32  1  0  0  0  0
 12 13  1  0  0  0  0
 12 14  2  0  0  0  0
 13 15  1  0  0  0  0
 13 16  1  0  0  0  0
 14 17  1  0  0  0  0
 14 33  1  0  0  0  0
 15 18  2  0  0  0  0
 16 19  1  0  0  0  0
 16 20  2  0  0  0  0
 17 21  1  0  0  0  0
 17 19  2  0  0  0  0
 18 22  1  0  0  0  0
 18 20  1  0  0  0  0
 21 23  1  0  0  0  0
 21 34  1  0  0  0  0
 21 35  1  0  0  0  0
 22 24  1  0  0  0  0
 22 25  1  0  0  0  0
 22 26  1  0  0  0  0
 23 36  1  0  0  0  0
 23 37  1  0  0  0  0
 23 38  1  0  0  0  0
 26 27  1  0  0  0  0
 26 39  1  0  0  0  0
 26 40  1  0  0  0  0
 27 41  1  0  0  0  0
 27 42  1  0  0  0  0
 27 43  1  0  0  0  0
M  END
>  <ID>
54

>  <Parent ID>
1

>  <Generation>
1

>  <Parent Generation>
0

>  <Child No>
2

>  <Fitness>
0.97029

>  <SkelSpheres sim score>
0.95228

>  <FragFp sim score>
0.98864

$$$$
Compound 11
 OpenBabel11072204203D

 43 45  0  0  0  0  0  0  0  0999 V2000
    4.3325    3.9383    0.6051 F   0  0  0  0  0  0  0  0  0  0  0  0
    3.1193    3.3663    0.4643 C   0  0  0  0  0  0  0  0  0  0  0  0
    2.6127    3.1834    1.7064 F   0  0  0  0  0  0  0  0  0  0  0  0
    2.3223    4.2621   -0.1654 F   0  0  0  0  0  0  0  0  0  0  0  0
    3.1485    2.0475   -0.3020 C   0  0  0  0  0  0  0  0  0  0  0  0
    4.5279    1.6001   -0.7166 C   0  0  0  0  0  0  0  0  0  0  0  0
    5.2970    0.8175    0.1491 C   0  0  0  0  0  0  0  0  0  0  0  0
    5.0838    2.0121   -1.9353 C   0  0  0  0  0  0  0  0  0  0  0  0
    6.6043    0.4705   -0.1908 C   0  0  0  0  0  0  0  0  0  0  0  0
    6.3971    1.6632   -2.2714 C   0  0  0  0  0  0  0  0  0  0  0  0
    7.1678    0.8787   -1.4085 C   0  0  0  0  0  0  0  0  0  0  0  0
    8.5408    0.6479   -1.7196 N   0  0  0  0  0  0  0  0  0  0  0  0
    9.2059   -0.4554   -1.1670 C   0  0  0  0  0  0  0  0  0  0  0  0
   10.2709   -0.2240   -0.2707 N   0  0  0  0  0  0  0  0  0  0  0  0
    8.8468   -1.7270   -1.4084 C   0  0  0  0  0  0  0  0  0  0  0  0
   10.8026    0.9604    0.1372 N   0  0  0  0  0  0  0  0  0  0  0  0
   10.9103   -1.2815    0.3834 C   0  0  0  0  0  0  0  0  0  0  0  0
    9.5734   -2.7885   -0.6529 C   0  0  0  0  0  0  0  0  0  0  0  0
   11.7144    0.5699    1.0480 C   0  0  0  0  0  0  0  0  0  0  0  0
   10.5493   -2.5797    0.1804 N   0  0  0  0  0  0  0  0  0  0  0  0
   11.8179   -0.7946    1.1983 N   0  0  0  0  0  0  0  0  0  0  0  0
    9.1016   -4.2062   -0.8498 C   0  0  0  0  0  0  0  0  0  0  0  0
   12.5878    1.5184    1.8400 C   0  0  0  0  0  0  0  0  0  0  0  0
   12.3647    2.8253    1.5044 F   0  0  0  0  0  0  0  0  0  0  0  0
   12.2872    1.4375    3.1736 F   0  0  0  0  0  0  0  0  0  0  0  0
   14.0818    1.2366    1.6877 C   0  0  0  0  0  0  0  0  0  0  0  0
   14.5804    1.3978    0.2588 C   0  0  0  0  0  0  0  0  0  0  0  0
    2.5122    2.1226   -1.1919 H   0  0  0  0  0  0  0  0  0  0  0  0
    2.6887    1.2619    0.3116 H   0  0  0  0  0  0  0  0  0  0  0  0
    4.9011    0.4932    1.1093 H   0  0  0  0  0  0  0  0  0  0  0  0
    4.5091    2.6262   -2.6260 H   0  0  0  0  0  0  0  0  0  0  0  0
    7.1823   -0.1000    0.5305 H   0  0  0  0  0  0  0  0  0  0  0  0
    6.8158    2.0077   -3.2138 H   0  0  0  0  0  0  0  0  0  0  0  0
    9.0491    1.5088   -1.4737 H   0  0  0  0  0  0  0  0  0  0  0  0
    8.0391   -1.9921   -2.0770 H   0  0  0  0  0  0  0  0  0  0  0  0
    8.3182   -4.2665   -1.6104 H   0  0  0  0  0  0  0  0  0  0  0  0
    8.7009   -4.5818    0.0963 H   0  0  0  0  0  0  0  0  0  0  0  0
    9.9434   -4.8326   -1.1575 H   0  0  0  0  0  0  0  0  0  0  0  0
   14.3161    0.2278    2.0486 H   0  0  0  0  0  0  0  0  0  0  0  0
   14.6361    1.9309    2.3305 H   0  0  0  0  0  0  0  0  0  0  0  0
   14.1032    0.6800   -0.4156 H   0  0  0  0  0  0  0  0  0  0  0  0
   15.6606    1.2268    0.2153 H   0  0  0  0  0  0  0  0  0  0  0  0
   14.3811    2.4070   -0.1147 H   0  0  0  0  0  0  0  0  0  0  0  0
  1  2  1  0  0  0  0
  2  3  1  0  0  0  0
  2  4  1  0  0  0  0
  2  5  1  0  0  0  0
  5  6  1  0  0  0  0
  5 28  1  0  0  0  0
  5 29  1  0  0  0  0
  6  7  2  0  0  0  0
  6  8  1  0  0  0  0
  7  9  1  0  0  0  0
  7 30  1  0  0  0  0
  8 10  2  0  0  0  0
  8 31  1  0  0  0  0
  9 11  2  0  0  0  0
  9 32  1  0  0  0  0
 10 11  1  0  0  0  0
 10 33  1  0  0  0  0
 11 12  1  0  0  0  0
 12 13  1  0  0  0  0
 12 34  1  0  0  0  0
 13 14  1  0  0  0  0
 13 15  2  0  0  0  0
 14 16  1  0  0  0  0
 14 17  1  0  0  0  0
 15 18  1  0  0  0  0
 15 35  1  0  0  0  0
 16 19  2  0  0  0  0
 17 20  1  0  0  0  0
 17 21  2  0  0  0  0
 18 22  1  0  0  0  0
 18 20  2  0  0  0  0
 19 23  1  0  0  0  0
 19 21  1  0  0  0  0
 22 36  1  0  0  0  0
 22 37  1  0  0  0  0
 22 38  1  0  0  0  0
 23 24  1  0  0  0  0
 23 25  1  0  0  0  0
 23 26  1  0  0  0  0
 26 27  1  0  0  0  0
 26 39  1  0  0  0  0
 26 40  1  0  0  0  0
 27 41  1  0  0  0  0
 27 42  1  0  0  0  0
 27 43  1  0  0  0  0
M  END
>  <ID>
56

>  <Parent ID>
1

>  <Generation>
1

>  <Parent Generation>
0

>  <Child No>
8

>  <Fitness>
0.93493

>  <SkelSpheres sim score>
0.92064

>  <FragFp sim score>
0.94944

$$$$
Compound 12
 OpenBabel11072204203D

 37 39  0  0  0  0  0  0  0  0999 V2000
   -1.7332    7.2830   -3.2345 F   0  0  0  0  0  0  0  0  0  0  0  0
   -0.9154    6.7129   -2.3054 C   0  0  0  0  0  0  0  0  0  0  0  0
   -0.5419    7.7169   -1.4669 F   0  0  0  0  0  0  0  0  0  0  0  0
   -1.7131    5.8875   -1.5703 F   0  0  0  0  0  0  0  0  0  0  0  0
    0.2585    5.9786   -2.9060 C   0  0  0  0  0  0  0  0  0  0  0  0
    0.4396    5.9128   -4.2927 C   0  0  0  0  0  0  0  0  0  0  0  0
    1.1646    5.3002   -2.0812 C   0  0  0  0  0  0  0  0  0  0  0  0
    1.4416    5.1062   -4.8449 C   0  0  0  0  0  0  0  0  0  0  0  0
    2.1654    4.4971   -2.6384 C   0  0  0  0  0  0  0  0  0  0  0  0
    2.2712    4.3313   -4.0275 C   0  0  0  0  0  0  0  0  0  0  0  0
    3.2360    3.4084   -4.5189 N   0  0  0  0  0  0  0  0  0  0  0  0
    3.3472    3.0161   -5.8552 C   0  0  0  0  0  0  0  0  0  0  0  0
    3.0984    1.6574   -6.1645 N   0  0  0  0  0  0  0  0  0  0  0  0
    3.7369    3.8241   -6.8563 C   0  0  0  0  0  0  0  0  0  0  0  0
    2.7538    0.6437   -5.3239 N   0  0  0  0  0  0  0  0  0  0  0  0
    3.2081    1.1715   -7.4722 C   0  0  0  0  0  0  0  0  0  0  0  0
    3.8112    3.2142   -8.2095 C   0  0  0  0  0  0  0  0  0  0  0  0
    2.7402   -0.4232   -6.1452 C   0  0  0  0  0  0  0  0  0  0  0  0
    3.5553    1.9807   -8.5134 N   0  0  0  0  0  0  0  0  0  0  0  0
    2.9631   -0.1210   -7.4702 N   0  0  0  0  0  0  0  0  0  0  0  0
    2.5739   -1.8508   -5.6627 C   0  0  0  0  0  0  0  0  0  0  0  0
    3.5077   -2.6630   -6.2449 F   0  0  0  0  0  0  0  0  0  0  0  0
    2.8137   -1.9369   -4.3174 F   0  0  0  0  0  0  0  0  0  0  0  0
    1.1911   -2.4372   -5.9387 C   0  0  0  0  0  0  0  0  0  0  0  0
    1.0664   -3.8513   -5.3777 C   0  0  0  0  0  0  0  0  0  0  0  0
   -0.2247    6.4611   -4.9597 H   0  0  0  0  0  0  0  0  0  0  0  0
    1.0742    5.3653   -0.9976 H   0  0  0  0  0  0  0  0  0  0  0  0
    1.5115    5.0628   -5.9267 H   0  0  0  0  0  0  0  0  0  0  0  0
    2.8436    3.9674   -1.9719 H   0  0  0  0  0  0  0  0  0  0  0  0
    3.2198    2.5804   -3.9127 H   0  0  0  0  0  0  0  0  0  0  0  0
    3.9988    4.8651   -6.7270 H   0  0  0  0  0  0  0  0  0  0  0  0
    4.1125    3.9071   -9.0132 H   0  0  0  0  0  0  0  0  0  0  0  0
    1.0011   -2.4710   -7.0182 H   0  0  0  0  0  0  0  0  0  0  0  0
    0.4149   -1.8110   -5.4839 H   0  0  0  0  0  0  0  0  0  0  0  0
    1.7982   -4.5243   -5.8364 H   0  0  0  0  0  0  0  0  0  0  0  0
    0.0678   -4.2553   -5.5710 H   0  0  0  0  0  0  0  0  0  0  0  0
    1.2281   -3.8605   -4.2946 H   0  0  0  0  0  0  0  0  0  0  0  0
  1  2  1  0  0  0  0
  2  3  1  0  0  0  0
  2  4  1  0  0  0  0
  2  5  1  0  0  0  0
  5  6  2  0  0  0  0
  5  7  1  0  0  0  0
  6  8  1  0  0  0  0
  6 26  1  0  0  0  0
  7  9  2  0  0  0  0
  7 27  1  0  0  0  0
  8 10  2  0  0  0  0
  8 28  1  0  0  0  0
  9 10  1  0  0  0  0
  9 29  1  0  0  0  0
 10 11  1  0  0  0  0
 11 12  1  0  0  0  0
 11 30  1  0  0  0  0
 12 13  1  0  0  0  0
 12 14  2  0  0  0  0
 13 15  1  0  0  0  0
 13 16  1  0  0  0  0
 14 17  1  0  0  0  0
 14 31  1  0  0  0  0
 15 18  2  0  0  0  0
 16 19  1  0  0  0  0
 16 20  2  0  0  0  0
 17 19  2  0  0  0  0
 17 32  1  0  0  0  0
 18 21  1  0  0  0  0
 18 20  1  0  0  0  0
 21 22  1  0  0  0  0
 21 23  1  0  0  0  0
 21 24  1  0  0  0  0
 24 25  1  0  0  0  0
 24 33  1  0  0  0  0
 24 34  1  0  0  0  0
 25 35  1  0  0  0  0
 25 36  1  0  0  0  0
 25 37  1  0  0  0  0
M  END
>  <ID>
58

>  <Parent ID>
1

>  <Generation>
1

>  <Parent Generation>
0

>  <Child No>
4

>  <Fitness>
0.95818

>  <SkelSpheres sim score>
0.92342

>  <FragFp sim score>
0.99425

$$$$
Compound 13
 OpenBabel11072204203D

 41 43  0  0  0  0  0  0  0  0999 V2000
    1.9280    2.2496   -8.4684 F   0  0  0  0  0  0  0  0  0  0  0  0
    2.0673    0.9851   -8.9553 C   0  0  0  0  0  0  0  0  0  0  0  0
    0.9239    0.7227   -9.6467 F   0  0  0  0  0  0  0  0  0  0  0  0
    3.0592    1.0528   -9.8870 F   0  0  0  0  0  0  0  0  0  0  0  0
    2.3498   -0.0463   -7.8911 C   0  0  0  0  0  0  0  0  0  0  0  0
    2.4479    0.3090   -6.5389 C   0  0  0  0  0  0  0  0  0  0  0  0
    2.5457   -1.3874   -8.2513 C   0  0  0  0  0  0  0  0  0  0  0  0
    2.7545   -0.6545   -5.5731 C   0  0  0  0  0  0  0  0  0  0  0  0
    2.8446   -2.3486   -7.2810 C   0  0  0  0  0  0  0  0  0  0  0  0
    2.9364   -1.9952   -5.9292 C   0  0  0  0  0  0  0  0  0  0  0  0
    3.3653   -2.9060   -4.9311 N   0  0  0  0  0  0  0  0  0  0  0  0
    3.1062   -4.2766   -4.9937 C   0  0  0  0  0  0  0  0  0  0  0  0
    4.2113   -5.1547   -4.8978 N   0  0  0  0  0  0  0  0  0  0  0  0
    1.8775   -4.8248   -5.1162 C   0  0  0  0  0  0  0  0  0  0  0  0
    5.5286   -4.8263   -4.7841 N   0  0  0  0  0  0  0  0  0  0  0  0
    4.0910   -6.5414   -4.9511 C   0  0  0  0  0  0  0  0  0  0  0  0
    1.7132   -6.2759   -5.1489 C   0  0  0  0  0  0  0  0  0  0  0  0
    6.1355   -6.0264   -4.7629 C   0  0  0  0  0  0  0  0  0  0  0  0
    5.2771   -7.1015   -4.8792 N   0  0  0  0  0  0  0  0  0  0  0  0
    2.7869   -7.0912   -5.0735 C   0  0  0  0  0  0  0  0  0  0  0  0
    0.3181   -6.8180   -5.2502 C   0  0  0  0  0  0  0  0  0  0  0  0
    7.6350   -6.2029   -4.6581 C   0  0  0  0  0  0  0  0  0  0  0  0
    8.2881   -5.0022   -4.5965 F   0  0  0  0  0  0  0  0  0  0  0  0
    7.9562   -6.8432   -3.4917 F   0  0  0  0  0  0  0  0  0  0  0  0
    8.2389   -7.0088   -5.8071 C   0  0  0  0  0  0  0  0  0  0  0  0
    8.0532   -6.3574   -7.1702 C   0  0  0  0  0  0  0  0  0  0  0  0
    2.3010    1.3424   -6.2281 H   0  0  0  0  0  0  0  0  0  0  0  0
    2.4867   -1.6871   -9.2968 H   0  0  0  0  0  0  0  0  0  0  0  0
    2.8455   -0.3558   -4.5307 H   0  0  0  0  0  0  0  0  0  0  0  0
    3.0287   -3.3711   -7.6006 H   0  0  0  0  0  0  0  0  0  0  0  0
    4.3718   -2.7599   -4.7770 H   0  0  0  0  0  0  0  0  0  0  0  0
    0.9987   -4.1902   -5.1766 H   0  0  0  0  0  0  0  0  0  0  0  0
    2.6865   -8.1711   -5.0935 H   0  0  0  0  0  0  0  0  0  0  0  0
   -0.4333   -6.0223   -5.2961 H   0  0  0  0  0  0  0  0  0  0  0  0
    0.0855   -7.4363   -4.3765 H   0  0  0  0  0  0  0  0  0  0  0  0
    0.2064   -7.4281   -6.1526 H   0  0  0  0  0  0  0  0  0  0  0  0
    7.8193   -8.0216   -5.8217 H   0  0  0  0  0  0  0  0  0  0  0  0
    9.3142   -7.1225   -5.6222 H   0  0  0  0  0  0  0  0  0  0  0  0
    6.9950   -6.2838   -7.4390 H   0  0  0  0  0  0  0  0  0  0  0  0
    8.5513   -6.9532   -7.9420 H   0  0  0  0  0  0  0  0  0  0  0  0
    8.4851   -5.3519   -7.1884 H   0  0  0  0  0  0  0  0  0  0  0  0
  1  2  1  0  0  0  0
  2  3  1  0  0  0  0
  2  4  1  0  0  0  0
  2  5  1  0  0  0  0
  5  6  2  0  0  0  0
  5  7  1  0  0  0  0
  6  8  1  0  0  0  0
  6 27  1  0  0  0  0
  7  9  2  0  0  0  0
  7 28  1  0  0  0  0
  8 10  2  0  0  0  0
  8 29  1  0  0  0  0
  9 10  1  0  0  0  0
  9 30  1  0  0  0  0
 10 11  1  0  0  0  0
 11 12  1  0  0  0  0
 11 31  1  0  0  0  0
 12 13  1  0  0  0  0
 12 14  2  0  0  0  0
 13 15  1  0  0  0  0
 13 16  1  0  0  0  0
 14 17  1  0  0  0  0
 14 32  1  0  0  0  0
 15 18  2  0  0  0  0
 16 19  2  0  0  0  0
 16 20  1  0  0  0  0
 17 21  1  0  0  0  0
 17 20  2  0  0  0  0
 18 22  1  0  0  0  0
 18 19  1  0  0  0  0
 20 33  1  0  0  0  0
 21 34  1  0  0  0  0
 21 35  1  0  0  0  0
 21 36  1  0  0  0  0
 22 23  1  0  0  0  0
 22 24  1  0  0  0  0
 22 25  1  0  0  0  0
 25 26  1  0  0  0  0
 25 37  1  0  0  0  0
 25 38  1  0  0  0  0
 26 39  1  0  0  0  0
 26 40  1  0  0  0  0
 26 41  1  0  0  0  0
M  END
>  <ID>
59

>  <Parent ID>
1

>  <Generation>
1

>  <Parent Generation>
0

>  <Child No>
5

>  <Fitness>
0.95369

>  <SkelSpheres sim score>
0.95257

>  <FragFp sim score>
0.9548

$$$$
Compound 14
 OpenBabel11072204203D

 41 43  0  0  0  0  0  0  0  0999 V2000
    2.0362    2.3348   -8.3707 F   0  0  0  0  0  0  0  0  0  0  0  0
    2.1433    1.0751   -8.8771 C   0  0  0  0  0  0  0  0  0  0  0  0
    0.9993    0.8555   -9.5816 F   0  0  0  0  0  0  0  0  0  0  0  0
    3.1454    1.1276   -9.7982 F   0  0  0  0  0  0  0  0  0  0  0  0
    2.3867    0.0189   -7.8263 C   0  0  0  0  0  0  0  0  0  0  0  0
    2.4794    0.3503   -6.4681 C   0  0  0  0  0  0  0  0  0  0  0  0
    2.5547   -1.3209   -8.2055 C   0  0  0  0  0  0  0  0  0  0  0  0
    2.7552   -0.6349   -5.5150 C   0  0  0  0  0  0  0  0  0  0  0  0
    2.8248   -2.3042   -7.2483 C   0  0  0  0  0  0  0  0  0  0  0  0
    2.9138   -1.9736   -5.8905 C   0  0  0  0  0  0  0  0  0  0  0  0
    3.3162   -2.9056   -4.8993 N   0  0  0  0  0  0  0  0  0  0  0  0
    3.0631   -4.2752   -4.9894 C   0  0  0  0  0  0  0  0  0  0  0  0
    4.1670   -5.1476   -4.8958 N   0  0  0  0  0  0  0  0  0  0  0  0
    1.8391   -4.8154   -5.1330 C   0  0  0  0  0  0  0  0  0  0  0  0
    5.4786   -4.8299   -4.7677 N   0  0  0  0  0  0  0  0  0  0  0  0
    4.0148   -6.5343   -4.9741 C   0  0  0  0  0  0  0  0  0  0  0  0
    1.7818   -6.3010   -5.1789 C   0  0  0  0  0  0  0  0  0  0  0  0
    6.0724   -6.0364   -4.7680 C   0  0  0  0  0  0  0  0  0  0  0  0
    2.7881   -7.1181   -5.1131 N   0  0  0  0  0  0  0  0  0  0  0  0
    5.2004   -7.0958   -4.9058 N   0  0  0  0  0  0  0  0  0  0  0  0
    0.5152   -6.9945   -5.3061 C   0  0  0  0  0  0  0  0  0  0  0  0
    7.5702   -6.2319   -4.6646 C   0  0  0  0  0  0  0  0  0  0  0  0
   -0.5280   -7.4955   -5.4081 N   0  0  0  0  0  0  0  0  0  0  0  0
    8.2341   -5.0364   -4.6215 F   0  0  0  0  0  0  0  0  0  0  0  0
    7.8844   -6.8568   -3.4889 F   0  0  0  0  0  0  0  0  0  0  0  0
    8.1639   -7.0594   -5.8046 C   0  0  0  0  0  0  0  0  0  0  0  0
    7.9749   -6.4197   -7.1825 C   0  0  0  0  0  0  0  0  0  0  0  0
    8.6150   -7.2598   -8.2771 C   0  0  0  0  0  0  0  0  0  0  0  0
    2.3551    1.3824   -6.1429 H   0  0  0  0  0  0  0  0  0  0  0  0
    2.5001   -1.6007   -9.2571 H   0  0  0  0  0  0  0  0  0  0  0  0
    2.8453   -0.3515   -4.4681 H   0  0  0  0  0  0  0  0  0  0  0  0
    2.9963   -3.3217   -7.5888 H   0  0  0  0  0  0  0  0  0  0  0  0
    4.3164   -2.7481   -4.7087 H   0  0  0  0  0  0  0  0  0  0  0  0
    0.9283   -4.2347   -5.1969 H   0  0  0  0  0  0  0  0  0  0  0  0
    7.7349   -8.0689   -5.7961 H   0  0  0  0  0  0  0  0  0  0  0  0
    9.2382   -7.1800   -5.6148 H   0  0  0  0  0  0  0  0  0  0  0  0
    8.4179   -5.4172   -7.1932 H   0  0  0  0  0  0  0  0  0  0  0  0
    6.9086   -6.3063   -7.4075 H   0  0  0  0  0  0  0  0  0  0  0  0
    9.6932   -7.3588   -8.1168 H   0  0  0  0  0  0  0  0  0  0  0  0
    8.4582   -6.7919   -9.2541 H   0  0  0  0  0  0  0  0  0  0  0  0
    8.1777   -8.2629   -8.3074 H   0  0  0  0  0  0  0  0  0  0  0  0
  1  2  1  0  0  0  0
  2  3  1  0  0  0  0
  2  4  1  0  0  0  0
  2  5  1  0  0  0  0
  5  6  2  0  0  0  0
  5  7  1  0  0  0  0
  6  8  1  0  0  0  0
  6 29  1  0  0  0  0
  7  9  2  0  0  0  0
  7 30  1  0  0  0  0
  8 10  2  0  0  0  0
  8 31  1  0  0  0  0
  9 10  1  0  0  0  0
  9 32  1  0  0  0  0
 10 11  1  0  0  0  0
 11 12  1  0  0  0  0
 11 33  1  0  0  0  0
 12 13  1  0  0  0  0
 12 14  2  0  0  0  0
 13 15  1  0  0  0  0
 13 16  1  0  0  0  0
 14 17  1  0  0  0  0
 14 34  1  0  0  0  0
 15 18  2  0  0  0  0
 16 19  1  0  0  0  0
 16 20  2  0  0  0  0
 17 21  1  0  0  0  0
 17 19  2  0  0  0  0
 18 22  1  0  0  0  0
 18 20  1  0  0  0  0
 21 23  3  0  0  0  0
 22 24  1  0  0  0  0
 22 25  1  0  0  0  0
 22 26  1  0  0  0  0
 26 27  1  0  0  0  0
 26 35  1  0  0  0  0
 26 36  1  0  0  0  0
 27 28  1  0  0  0  0
 27 37  1  0  0  0  0
 27 38  1  0  0  0  0
 28 39  1  0  0  0  0
 28 40  1  0  0  0  0
 28 41  1  0  0  0  0
M  END
>  <ID>
60

>  <Parent ID>
3

>  <Generation>
2

>  <Parent Generation>
1

>  <Child No>
7

>  <Fitness>
0.9358

>  <SkelSpheres sim score>
0.89081

>  <FragFp sim score>
0.98305

$$$$
Compound 15
 OpenBabel11072204203D

 42 44  0  0  0  0  0  0  0  0999 V2000
    2.0891    2.3336   -8.4914 F   0  0  0  0  0  0  0  0  0  0  0  0
    2.2184    1.0678   -8.9770 C   0  0  0  0  0  0  0  0  0  0  0  0
    1.0737    0.8136   -9.6691 F   0  0  0  0  0  0  0  0  0  0  0  0
    3.2125    1.1248   -9.9064 F   0  0  0  0  0  0  0  0  0  0  0  0
    2.4899    0.0357   -7.9107 C   0  0  0  0  0  0  0  0  0  0  0  0
    2.5913    0.3947   -6.5594 C   0  0  0  0  0  0  0  0  0  0  0  0
    2.6741   -1.3075   -8.2676 C   0  0  0  0  0  0  0  0  0  0  0  0
    2.8890   -0.5676   -5.5910 C   0  0  0  0  0  0  0  0  0  0  0  0
    2.9649   -2.2676   -7.2954 C   0  0  0  0  0  0  0  0  0  0  0  0
    3.0569   -1.9094   -5.9443 C   0  0  0  0  0  0  0  0  0  0  0  0
    3.4698   -2.8215   -4.9426 N   0  0  0  0  0  0  0  0  0  0  0  0
    3.1565   -4.1831   -4.9940 C   0  0  0  0  0  0  0  0  0  0  0  0
    4.2138   -5.0961   -4.8925 N   0  0  0  0  0  0  0  0  0  0  0  0
    1.9127   -4.6731   -5.1251 C   0  0  0  0  0  0  0  0  0  0  0  0
    5.5392   -4.8244   -4.7812 N   0  0  0  0  0  0  0  0  0  0  0  0
    4.0040   -6.4700   -4.9486 C   0  0  0  0  0  0  0  0  0  0  0  0
    1.7421   -6.1605   -5.1612 C   0  0  0  0  0  0  0  0  0  0  0  0
    6.0842   -6.0521   -4.7649 C   0  0  0  0  0  0  0  0  0  0  0  0
    2.7518   -6.9970   -5.0780 N   0  0  0  0  0  0  0  0  0  0  0  0
    5.1702   -7.0791   -4.8795 N   0  0  0  0  0  0  0  0  0  0  0  0
    0.5073   -6.7402   -5.2952 N   0  0  0  0  0  0  0  0  0  0  0  0
    7.5750   -6.2907   -4.6634 C   0  0  0  0  0  0  0  0  0  0  0  0
   -0.7916   -6.1240   -5.3535 C   0  0  0  0  0  0  0  0  0  0  0  0
    8.2721   -5.1132   -4.6053 F   0  0  0  0  0  0  0  0  0  0  0  0
    7.8748   -6.9364   -3.4950 F   0  0  0  0  0  0  0  0  0  0  0  0
    8.1523   -7.1155   -5.8111 C   0  0  0  0  0  0  0  0  0  0  0  0
    7.9841   -6.4628   -7.1759 C   0  0  0  0  0  0  0  0  0  0  0  0
    2.4547    1.4302   -6.2517 H   0  0  0  0  0  0  0  0  0  0  0  0
    2.6112   -1.6097   -9.3128 H   0  0  0  0  0  0  0  0  0  0  0  0
    2.9822   -0.2679   -4.5491 H   0  0  0  0  0  0  0  0  0  0  0  0
    3.1408   -3.2919   -7.6129 H   0  0  0  0  0  0  0  0  0  0  0  0
    4.4846   -2.7113   -4.8042 H   0  0  0  0  0  0  0  0  0  0  0  0
    1.0571   -4.0210   -5.1966 H   0  0  0  0  0  0  0  0  0  0  0  0
    0.5203   -7.7555   -5.2510 H   0  0  0  0  0  0  0  0  0  0  0  0
   -0.7607   -5.0333   -5.3991 H   0  0  0  0  0  0  0  0  0  0  0  0
   -1.3795   -6.4067   -4.4753 H   0  0  0  0  0  0  0  0  0  0  0  0
   -1.3216   -6.4718   -6.2452 H   0  0  0  0  0  0  0  0  0  0  0  0
    7.7057   -8.1165   -5.8214 H   0  0  0  0  0  0  0  0  0  0  0  0
    9.2248   -7.2566   -5.6278 H   0  0  0  0  0  0  0  0  0  0  0  0
    6.9282   -6.3593   -7.4437 H   0  0  0  0  0  0  0  0  0  0  0  0
    8.4640   -7.0751   -7.9464 H   0  0  0  0  0  0  0  0  0  0  0  0
    8.4451   -5.4703   -7.1983 H   0  0  0  0  0  0  0  0  0  0  0  0
  1  2  1  0  0  0  0
  2  3  1  0  0  0  0
  2  4  1  0  0  0  0
  2  5  1  0  0  0  0
  5  6  2  0  0  0  0
  5  7  1  0  0  0  0
  6  8  1  0  0  0  0
  6 28  1  0  0  0  0
  7  9  2  0  0  0  0
  7 29  1  0  0  0  0
  8 10  2  0  0  0  0
  8 30  1  0  0  0  0
  9 10  1  0  0  0  0
  9 31  1  0  0  0  0
 10 11  1  0  0  0  0
 11 12  1  0  0  0  0
 11 32  1  0  0  0  0
 12 13  1  0  0  0  0
 12 14  2  0  0  0  0
 13 15  1  0  0  0  0
 13 16  1  0  0  0  0
 14 17  1  0  0  0  0
 14 33  1  0  0  0  0
 15 18  2  0  0  0  0
 16 19  1  0  0  0  0
 16 20  2  0  0  0  0
 17 21  1  0  0  0  0
 17 19  2  0  0  0  0
 18 22  1  0  0  0  0
 18 20  1  0  0  0  0
 21 23  1  0  0  0  0
 21 34  1  0  0  0  0
 22 24  1  0  0  0  0
 22 25  1  0  0  0  0
 22 26  1  0  0  0  0
 23 35  1  0  0  0  0
 23 36  1  0  0  0  0
 23 37  1  0  0  0  0
 26 27  1  0  0  0  0
 26 38  1  0  0  0  0
 26 39  1  0  0  0  0
 27 40  1  0  0  0  0
 27 41  1  0  0  0  0
 27 42  1  0  0  0  0
M  END
>  <ID>
73

>  <Parent ID>
8

>  <Generation>
2

>  <Parent Generation>
1

>  <Child No>
3

>  <Fitness>
0.96399

>  <SkelSpheres sim score>
0.94002

>  <FragFp sim score>
0.98857

$$$$
Compound 16
 OpenBabel11072204203D

 45 47  0  0  0  0  0  0  0  0999 V2000
    2.0899    2.3039   -8.5028 F   0  0  0  0  0  0  0  0  0  0  0  0
    2.2146    1.0358   -8.9842 C   0  0  0  0  0  0  0  0  0  0  0  0
    1.0721    0.7871   -9.6824 F   0  0  0  0  0  0  0  0  0  0  0  0
    3.2139    1.0850   -9.9086 F   0  0  0  0  0  0  0  0  0  0  0  0
    2.4735    0.0046   -7.9131 C   0  0  0  0  0  0  0  0  0  0  0  0
    2.5661    0.3661   -6.5623 C   0  0  0  0  0  0  0  0  0  0  0  0
    2.6537   -1.3412   -8.2635 C   0  0  0  0  0  0  0  0  0  0  0  0
    2.8482   -0.5955   -5.5882 C   0  0  0  0  0  0  0  0  0  0  0  0
    2.9283   -2.3015   -7.2851 C   0  0  0  0  0  0  0  0  0  0  0  0
    3.0092   -1.9390   -5.9355 C   0  0  0  0  0  0  0  0  0  0  0  0
    3.4093   -2.8522   -4.9213 N   0  0  0  0  0  0  0  0  0  0  0  0
    3.1174   -4.2179   -4.9824 C   0  0  0  0  0  0  0  0  0  0  0  0
    4.1908   -5.1174   -4.9078 N   0  0  0  0  0  0  0  0  0  0  0  0
    1.8809   -4.7300   -5.0935 C   0  0  0  0  0  0  0  0  0  0  0  0
    5.5129   -4.8276   -4.7878 N   0  0  0  0  0  0  0  0  0  0  0  0
    4.0039   -6.4932   -5.0044 C   0  0  0  0  0  0  0  0  0  0  0  0
    1.7362   -6.2240   -5.1696 C   0  0  0  0  0  0  0  0  0  0  0  0
    6.0751   -6.0480   -4.7864 C   0  0  0  0  0  0  0  0  0  0  0  0
    2.7609   -7.0392   -5.1488 N   0  0  0  0  0  0  0  0  0  0  0  0
    5.1787   -7.0852   -4.9386 N   0  0  0  0  0  0  0  0  0  0  0  0
    0.4532   -6.7188   -5.2727 N   0  0  0  0  0  0  0  0  0  0  0  0
    7.5672   -6.2735   -4.6706 C   0  0  0  0  0  0  0  0  0  0  0  0
    0.1615   -8.0209   -5.8446 C   0  0  0  0  0  0  0  0  0  0  0  0
    8.2539   -5.0906   -4.6048 F   0  0  0  0  0  0  0  0  0  0  0  0
    7.8624   -6.9195   -3.5011 F   0  0  0  0  0  0  0  0  0  0  0  0
    8.1592   -7.0924   -5.8155 C   0  0  0  0  0  0  0  0  0  0  0  0
   -1.3348   -8.2850   -5.7861 C   0  0  0  0  0  0  0  0  0  0  0  0
    7.9886   -6.4393   -7.1800 C   0  0  0  0  0  0  0  0  0  0  0  0
    2.4341    1.4037   -6.2588 H   0  0  0  0  0  0  0  0  0  0  0  0
    2.6016   -1.6451   -9.3087 H   0  0  0  0  0  0  0  0  0  0  0  0
    2.9370   -0.2917   -4.5471 H   0  0  0  0  0  0  0  0  0  0  0  0
    3.1038   -3.3273   -7.5992 H   0  0  0  0  0  0  0  0  0  0  0  0
    4.4215   -2.7307   -4.7718 H   0  0  0  0  0  0  0  0  0  0  0  0
    0.9976   -4.1099   -5.1439 H   0  0  0  0  0  0  0  0  0  0  0  0
   -0.3018   -6.0459   -5.3380 H   0  0  0  0  0  0  0  0  0  0  0  0
    0.6927   -8.8087   -5.3004 H   0  0  0  0  0  0  0  0  0  0  0  0
    0.4905   -8.0422   -6.8895 H   0  0  0  0  0  0  0  0  0  0  0  0
    7.7221   -8.0974   -5.8286 H   0  0  0  0  0  0  0  0  0  0  0  0
    9.2322   -7.2236   -5.6278 H   0  0  0  0  0  0  0  0  0  0  0  0
   -1.6979   -8.2647   -4.7531 H   0  0  0  0  0  0  0  0  0  0  0  0
   -1.5679   -9.2644   -6.2146 H   0  0  0  0  0  0  0  0  0  0  0  0
   -1.8902   -7.5265   -6.3491 H   0  0  0  0  0  0  0  0  0  0  0  0
    6.9323   -6.3433   -7.4493 H   0  0  0  0  0  0  0  0  0  0  0  0
    8.4740   -7.0467   -7.9505 H   0  0  0  0  0  0  0  0  0  0  0  0
    8.4415   -5.4430   -7.1997 H   0  0  0  0  0  0  0  0  0  0  0  0
  1  2  1  0  0  0  0
  2  3  1  0  0  0  0
  2  4  1  0  0  0  0
  2  5  1  0  0  0  0
  5  6  2  0  0  0  0
  5  7  1  0  0  0  0
  6  8  1  0  0  0  0
  6 29  1  0  0  0  0
  7  9  2  0  0  0  0
  7 30  1  0  0  0  0
  8 10  2  0  0  0  0
  8 31  1  0  0  0  0
  9 10  1  0  0  0  0
  9 32  1  0  0  0  0
 10 11  1  0  0  0  0
 11 12  1  0  0  0  0
 11 33  1  0  0  0  0
 12 13  1  0  0  0  0
 12 14  2  0  0  0  0
 13 15  1  0  0  0  0
 13 16  1  0  0  0  0
 14 17  1  0  0  0  0
 14 34  1  0  0  0  0
 15 18  2  0  0  0  0
 16 19  1  0  0  0  0
 16 20  2  0  0  0  0
 17 21  1  0  0  0  0
 17 19  2  0  0  0  0
 18 22  1  0  0  0  0
 18 20  1  0  0  0  0
 21 23  1  0  0  0  0
 21 35  1  0  0  0  0
 22 24  1  0  0  0  0
 22 25  1  0  0  0  0
 22 26  1  0  0  0  0
 23 27  1  0  0  0  0
 23 36  1  0  0  0  0
 23 37  1  0  0  0  0
 26 28  1  0  0  0  0
 26 38  1  0  0  0  0
 26 39  1  0  0  0  0
 27 40  1  0  0  0  0
 27 41  1  0  0  0  0
 27 42  1  0  0  0  0
 28 43  1  0  0  0  0
 28 44  1  0  0  0  0
 28 45  1  0  0  0  0
M  END
>  <ID>
103

>  <Parent ID>
54

>  <Generation>
2

>  <Parent Generation>
1

>  <Child No>
5

>  <Fitness>
0.95207

>  <SkelSpheres sim score>
0.92739

>  <FragFp sim score>
0.9774

$$$$
Compound 17
 OpenBabel11072204203D

 39 41  0  0  0  0  0  0  0  0999 V2000
    7.6148   -0.1242   -0.5832 F   0  0  0  0  0  0  0  0  0  0  0  0
    6.9883    1.0087   -1.0043 C   0  0  0  0  0  0  0  0  0  0  0  0
    6.3977    1.5427    0.0986 F   0  0  0  0  0  0  0  0  0  0  0  0
    7.9863    1.8738   -1.3508 F   0  0  0  0  0  0  0  0  0  0  0  0
    6.0174    0.7819   -2.1364 C   0  0  0  0  0  0  0  0  0  0  0  0
    5.8440   -0.4922   -2.6830 C   0  0  0  0  0  0  0  0  0  0  0  0
    5.2957    1.8487   -2.6888 C   0  0  0  0  0  0  0  0  0  0  0  0
    5.0328   -0.6783   -3.8065 C   0  0  0  0  0  0  0  0  0  0  0  0
    4.4777    1.6547   -3.8104 C   0  0  0  0  0  0  0  0  0  0  0  0
    4.3841    0.3993   -4.4264 C   0  0  0  0  0  0  0  0  0  0  0  0
    3.6056    0.2744   -5.6142 N   0  0  0  0  0  0  0  0  0  0  0  0
    3.5903   -0.8858   -6.3961 C   0  0  0  0  0  0  0  0  0  0  0  0
    4.0718   -0.8131   -7.7227 N   0  0  0  0  0  0  0  0  0  0  0  0
    3.1284   -2.0754   -5.9724 C   0  0  0  0  0  0  0  0  0  0  0  0
    4.4924    0.2767   -8.4286 N   0  0  0  0  0  0  0  0  0  0  0  0
    4.1531   -1.9527   -8.5262 C   0  0  0  0  0  0  0  0  0  0  0  0
    3.3093   -3.2552   -6.8638 C   0  0  0  0  0  0  0  0  0  0  0  0
    4.7963   -0.2566   -9.6278 C   0  0  0  0  0  0  0  0  0  0  0  0
    3.7991   -3.1865   -8.0706 N   0  0  0  0  0  0  0  0  0  0  0  0
    4.6074   -1.6160   -9.7104 N   0  0  0  0  0  0  0  0  0  0  0  0
    2.9869   -4.4963   -6.3933 N   0  0  0  0  0  0  0  0  0  0  0  0
    5.2237    0.5402  -10.8423 C   0  0  0  0  0  0  0  0  0  0  0  0
    5.3180    1.8773  -10.5758 F   0  0  0  0  0  0  0  0  0  0  0  0
    6.4771    0.1663  -11.2432 F   0  0  0  0  0  0  0  0  0  0  0  0
    4.2830    0.3562  -12.0356 C   0  0  0  0  0  0  0  0  0  0  0  0
    2.8624    0.8324  -11.7633 C   0  0  0  0  0  0  0  0  0  0  0  0
    6.3642   -1.3508   -2.2600 H   0  0  0  0  0  0  0  0  0  0  0  0
    5.3851    2.8468   -2.2612 H   0  0  0  0  0  0  0  0  0  0  0  0
    4.9710   -1.6855   -4.2029 H   0  0  0  0  0  0  0  0  0  0  0  0
    3.9364    2.5058   -4.2187 H   0  0  0  0  0  0  0  0  0  0  0  0
    3.7619    1.1023   -6.2009 H   0  0  0  0  0  0  0  0  0  0  0  0
    2.6877   -2.2160   -4.9941 H   0  0  0  0  0  0  0  0  0  0  0  0
    3.0497   -4.6521   -5.3943 H   0  0  0  0  0  0  0  0  0  0  0  0
    3.4102   -5.2427   -6.9395 H   0  0  0  0  0  0  0  0  0  0  0  0
    4.2638   -0.6968  -12.3422 H   0  0  0  0  0  0  0  0  0  0  0  0
    4.6817    0.9177  -12.8887 H   0  0  0  0  0  0  0  0  0  0  0  0
    2.3959    0.2619  -10.9538 H   0  0  0  0  0  0  0  0  0  0  0  0
    2.2444    0.7055  -12.6571 H   0  0  0  0  0  0  0  0  0  0  0  0
    2.8499    1.8916  -11.4890 H   0  0  0  0  0  0  0  0  0  0  0  0
  1  2  1  0  0  0  0
  2  3  1  0  0  0  0
  2  4  1  0  0  0  0
  2  5  1  0  0  0  0
  5  6  2  0  0  0  0
  5  7  1  0  0  0  0
  6  8  1  0  0  0  0
  6 27  1  0  0  0  0
  7  9  2  0  0  0  0
  7 28  1  0  0  0  0
  8 10  2  0  0  0  0
  8 29  1  0  0  0  0
  9 10  1  0  0  0  0
  9 30  1  0  0  0  0
 10 11  1  0  0  0  0
 11 12  1  0  0  0  0
 11 31  1  0  0  0  0
 12 13  1  0  0  0  0
 12 14  2  0  0  0  0
 13 15  1  0  0  0  0
 13 16  1  0  0  0  0
 14 17  1  0  0  0  0
 14 32  1  0  0  0  0
 15 18  2  0  0  0  0
 16 19  1  0  0  0  0
 16 20  2  0  0  0  0
 17 21  1  0  0  0  0
 17 19  2  0  0  0  0
 18 22  1  0  0  0  0
 18 20  1  0  0  0  0
 21 33  1  0  0  0  0
 21 34  1  0  0  0  0
 22 23  1  0  0  0  0
 22 24  1  0  0  0  0
 22 25  1  0  0  0  0
 25 26  1  0  0  0  0
 25 35  1  0  0  0  0
 25 36  1  0  0  0  0
 26 37  1  0  0  0  0
 26 38  1  0  0  0  0
 26 39  1  0  0  0  0
M  END
>  <ID>
110

>  <Parent ID>
73

>  <Generation>
3

>  <Parent Generation>
2

>  <Child No>
1

>  <Fitness>
0.97914

>  <SkelSpheres sim score>
0.97533

>  <FragFp sim score>
0.98295

$$$$
Compound 18
 OpenBabel11072204203D

 39 41  0  0  0  0  0  0  0  0999 V2000
    7.4789   -0.1278   -0.4967 F   0  0  0  0  0  0  0  0  0  0  0  0
    6.8603    1.0101   -0.9229 C   0  0  0  0  0  0  0  0  0  0  0  0
    6.2460    1.5342    0.1713 F   0  0  0  0  0  0  0  0  0  0  0  0
    7.8627    1.8757   -1.2435 F   0  0  0  0  0  0  0  0  0  0  0  0
    5.9140    0.7839   -2.0758 C   0  0  0  0  0  0  0  0  0  0  0  0
    5.7546   -0.4874   -2.6319 C   0  0  0  0  0  0  0  0  0  0  0  0
    5.2044    1.8530   -2.6407 C   0  0  0  0  0  0  0  0  0  0  0  0
    4.9687   -0.6684   -3.7735 C   0  0  0  0  0  0  0  0  0  0  0  0
    4.4108    1.6632   -3.7809 C   0  0  0  0  0  0  0  0  0  0  0  0
    4.3309    0.4105   -4.4034 C   0  0  0  0  0  0  0  0  0  0  0  0
    3.5735    0.2881   -5.6049 N   0  0  0  0  0  0  0  0  0  0  0  0
    3.5841   -0.8659   -6.3968 C   0  0  0  0  0  0  0  0  0  0  0  0
    4.0660   -0.7740   -7.7240 N   0  0  0  0  0  0  0  0  0  0  0  0
    3.1483   -2.0655   -5.9729 C   0  0  0  0  0  0  0  0  0  0  0  0
    4.4830    0.3268   -8.4145 N   0  0  0  0  0  0  0  0  0  0  0  0
    4.1742   -1.9087   -8.5345 C   0  0  0  0  0  0  0  0  0  0  0  0
    3.4185   -3.2296   -6.8616 C   0  0  0  0  0  0  0  0  0  0  0  0
    4.7672   -0.1858   -9.6293 C   0  0  0  0  0  0  0  0  0  0  0  0
    3.8826   -3.1579   -8.0714 N   0  0  0  0  0  0  0  0  0  0  0  0
    4.6144   -1.5516   -9.7188 N   0  0  0  0  0  0  0  0  0  0  0  0
    3.1851   -4.5967   -6.2683 C   0  0  0  0  0  0  0  0  0  0  0  0
    5.2478    0.6313  -10.8081 C   0  0  0  0  0  0  0  0  0  0  0  0
    5.9700    1.7225  -10.3927 F   0  0  0  0  0  0  0  0  0  0  0  0
    6.1370   -0.0923  -11.5648 F   0  0  0  0  0  0  0  0  0  0  0  0
    4.0779    1.0863  -11.6810 C   0  0  0  0  0  0  0  0  0  0  0  0
    2.8843    0.9082  -11.4209 O   0  0  0  0  0  0  0  0  0  0  0  0
    4.4529    1.8397  -12.9342 C   0  0  0  0  0  0  0  0  0  0  0  0
    6.2655   -1.3481   -2.2017 H   0  0  0  0  0  0  0  0  0  0  0  0
    5.2859    2.8492   -2.2078 H   0  0  0  0  0  0  0  0  0  0  0  0
    4.9188   -1.6750   -4.1725 H   0  0  0  0  0  0  0  0  0  0  0  0
    3.8787    2.5164   -4.1966 H   0  0  0  0  0  0  0  0  0  0  0  0
    3.7225    1.1239   -6.1818 H   0  0  0  0  0  0  0  0  0  0  0  0
    2.7067   -2.2205   -4.9991 H   0  0  0  0  0  0  0  0  0  0  0  0
    2.9415   -4.5312   -5.2050 H   0  0  0  0  0  0  0  0  0  0  0  0
    4.0978   -5.1928   -6.3728 H   0  0  0  0  0  0  0  0  0  0  0  0
    2.3702   -5.0869   -6.7981 H   0  0  0  0  0  0  0  0  0  0  0  0
    5.5384    1.8947  -13.0463 H   0  0  0  0  0  0  0  0  0  0  0  0
    4.0559    2.8563  -12.8734 H   0  0  0  0  0  0  0  0  0  0  0  0
    4.0382    1.3230  -13.8034 H   0  0  0  0  0  0  0  0  0  0  0  0
  1  2  1  0  0  0  0
  2  3  1  0  0  0  0
  2  4  1  0  0  0  0
  2  5  1  0  0  0  0
  5  6  2  0  0  0  0
  5  7  1  0  0  0  0
  6  8  1  0  0  0  0
  6 28  1  0  0  0  0
  7  9  2  0  0  0  0
  7 29  1  0  0  0  0
  8 10  2  0  0  0  0
  8 30  1  0  0  0  0
  9 10  1  0  0  0  0
  9 31  1  0  0  0  0
 10 11  1  0  0  0  0
 11 12  1  0  0  0  0
 11 32  1  0  0  0  0
 12 13  1  0  0  0  0
 12 14  2  0  0  0  0
 13 15  1  0  0  0  0
 13 16  1  0  0  0  0
 14 17  1  0  0  0  0
 14 33  1  0  0  0  0
 15 18  2  0  0  0  0
 16 19  1  0  0  0  0
 16 20  2  0  0  0  0
 17 21  1  0  0  0  0
 17 19  2  0  0  0  0
 18 22  1  0  0  0  0
 18 20  1  0  0  0  0
 21 34  1  0  0  0  0
 21 35  1  0  0  0  0
 21 36  1  0  0  0  0
 22 23  1  0  0  0  0
 22 24  1  0  0  0  0
 22 25  1  0  0  0  0
 25 26  2  0  0  0  0
 25 27  1  0  0  0  0
 27 37  1  0  0  0  0
 27 38  1  0  0  0  0
 27 39  1  0  0  0  0
M  END
>  <ID>
144

>  <Parent ID>
1

>  <Generation>
1

>  <Parent Generation>
0

>  <Child No>
8

>  <Fitness>
0.93906

>  <SkelSpheres sim score>
0.91731

>  <FragFp sim score>
0.96133

$$$$
Compound 19
 OpenBabel11072204203D

 41 43  0  0  0  0  0  0  0  0999 V2000
   -1.0333    4.5249   -6.6772 F   0  0  0  0  0  0  0  0  0  0  0  0
   -0.2405    4.5024   -5.5698 C   0  0  0  0  0  0  0  0  0  0  0  0
    0.1793    5.7818   -5.3794 F   0  0  0  0  0  0  0  0  0  0  0  0
   -1.0714    4.2203   -4.5267 F   0  0  0  0  0  0  0  0  0  0  0  0
    0.8977    3.5172   -5.6642 C   0  0  0  0  0  0  0  0  0  0  0  0
    1.0719    2.7216   -6.8027 C   0  0  0  0  0  0  0  0  0  0  0  0
    1.7691    3.3412   -4.5821 C   0  0  0  0  0  0  0  0  0  0  0  0
    2.0210    1.6955   -6.8149 C   0  0  0  0  0  0  0  0  0  0  0  0
    2.7195    2.3173   -4.6020 C   0  0  0  0  0  0  0  0  0  0  0  0
    2.7997    1.4291   -5.6851 C   0  0  0  0  0  0  0  0  0  0  0  0
    3.7051    0.3431   -5.5955 N   0  0  0  0  0  0  0  0  0  0  0  0
    3.7303   -0.7459   -6.4637 C   0  0  0  0  0  0  0  0  0  0  0  0
    3.3743   -2.0184   -5.9824 N   0  0  0  0  0  0  0  0  0  0  0  0
    4.1931   -0.6743   -7.7243 C   0  0  0  0  0  0  0  0  0  0  0  0
    3.5720   -3.1873   -6.7199 C   0  0  0  0  0  0  0  0  0  0  0  0
    2.8212   -2.3937   -4.7846 C   0  0  0  0  0  0  0  0  0  0  0  0
    4.2251   -1.9487   -8.5037 C   0  0  0  0  0  0  0  0  0  0  0  0
    3.9587   -3.1277   -8.0250 N   0  0  0  0  0  0  0  0  0  0  0  0
    3.3681   -4.2468   -5.9626 N   0  0  0  0  0  0  0  0  0  0  0  0
    2.9288   -3.7702   -4.7355 C   0  0  0  0  0  0  0  0  0  0  0  0
    4.5928   -1.8418   -9.9628 C   0  0  0  0  0  0  0  0  0  0  0  0
    2.6358   -4.6677   -3.5667 C   0  0  0  0  0  0  0  0  0  0  0  0
    2.6531   -3.9258   -2.4143 F   0  0  0  0  0  0  0  0  0  0  0  0
    1.3769   -5.1795   -3.6483 F   0  0  0  0  0  0  0  0  0  0  0  0
    3.6394   -5.8058   -3.4094 C   0  0  0  0  0  0  0  0  0  0  0  0
    3.4043   -6.5972   -2.1300 C   0  0  0  0  0  0  0  0  0  0  0  0
    0.4413    2.8673   -7.6787 H   0  0  0  0  0  0  0  0  0  0  0  0
    1.6873    3.9774   -3.7019 H   0  0  0  0  0  0  0  0  0  0  0  0
    2.0941    1.0832   -7.7078 H   0  0  0  0  0  0  0  0  0  0  0  0
    3.3719    2.1934   -3.7398 H   0  0  0  0  0  0  0  0  0  0  0  0
    3.7897    0.0590   -4.6190 H   0  0  0  0  0  0  0  0  0  0  0  0
    4.5509    0.2429   -8.1714 H   0  0  0  0  0  0  0  0  0  0  0  0
    2.4454   -1.6828   -4.0633 H   0  0  0  0  0  0  0  0  0  0  0  0
    4.7554   -0.8022  -10.2604 H   0  0  0  0  0  0  0  0  0  0  0  0
    3.7799   -2.2537  -10.5685 H   0  0  0  0  0  0  0  0  0  0  0  0
    5.5058   -2.4131  -10.1502 H   0  0  0  0  0  0  0  0  0  0  0  0
    4.6592   -5.4071   -3.3840 H   0  0  0  0  0  0  0  0  0  0  0  0
    3.5704   -6.4905   -4.2631 H   0  0  0  0  0  0  0  0  0  0  0  0
    3.5147   -5.9591   -1.2486 H   0  0  0  0  0  0  0  0  0  0  0  0
    4.1313   -7.4098   -2.0463 H   0  0  0  0  0  0  0  0  0  0  0  0
    2.4004   -7.0354   -2.1121 H   0  0  0  0  0  0  0  0  0  0  0  0
  1  2  1  0  0  0  0
  2  3  1  0  0  0  0
  2  4  1  0  0  0  0
  2  5  1  0  0  0  0
  5  6  2  0  0  0  0
  5  7  1  0  0  0  0
  6  8  1  0  0  0  0
  6 27  1  0  0  0  0
  7  9  2  0  0  0  0
  7 28  1  0  0  0  0
  8 10  2  0  0  0  0
  8 29  1  0  0  0  0
  9 10  1  0  0  0  0
  9 30  1  0  0  0  0
 10 11  1  0  0  0  0
 11 12  1  0  0  0  0
 11 31  1  0  0  0  0
 12 13  1  0  0  0  0
 12 14  2  0  0  0  0
 13 15  1  0  0  0  0
 13 16  1  0  0  0  0
 14 17  1  0  0  0  0
 14 32  1  0  0  0  0
 15 18  1  0  0  0  0
 15 19  2  0  0  0  0
 16 20  2  0  0  0  0
 16 33  1  0  0  0  0
 17 21  1  0  0  0  0
 17 18  2  0  0  0  0
 19 20  1  0  0  0  0
 20 22  1  0  0  0  0
 21 34  1  0  0  0  0
 21 35  1  0  0  0  0
 21 36  1  0  0  0  0
 22 23  1  0  0  0  0
 22 24  1  0  0  0  0
 22 25  1  0  0  0  0
 25 26  1  0  0  0  0
 25 37  1  0  0  0  0
 25 38  1  0  0  0  0
 26 39  1  0  0  0  0
 26 40  1  0  0  0  0
 26 41  1  0  0  0  0
M  END
>  <ID>
145

>  <Parent ID>
1

>  <Generation>
1

>  <Parent Generation>
0

>  <Child No>
6

>  <Fitness>
0.94888

>  <SkelSpheres sim score>
0.94326

>  <FragFp sim score>
0.95455

$$$$
Compound 20
 OpenBabel11072204203D

 42 44  0  0  0  0  0  0  0  0999 V2000
    7.6230    0.7934   -0.6628 F   0  0  0  0  0  0  0  0  0  0  0  0
    6.8447    1.8748   -0.3728 C   0  0  0  0  0  0  0  0  0  0  0  0
    6.3064    1.6299    0.8521 F   0  0  0  0  0  0  0  0  0  0  0  0
    7.7086    2.9145   -0.2044 F   0  0  0  0  0  0  0  0  0  0  0  0
    5.8036    2.1641   -1.4256 C   0  0  0  0  0  0  0  0  0  0  0  0
    5.7064    1.3679   -2.5687 C   0  0  0  0  0  0  0  0  0  0  0  0
    4.9416    3.2633   -1.3027 C   0  0  0  0  0  0  0  0  0  0  0  0
    4.8344    1.7171   -3.6029 C   0  0  0  0  0  0  0  0  0  0  0  0
    4.0625    3.6046   -2.3416 C   0  0  0  0  0  0  0  0  0  0  0  0
    4.0453    2.8760   -3.5391 C   0  0  0  0  0  0  0  0  0  0  0  0
    3.2027    3.3143   -4.6049 N   0  0  0  0  0  0  0  0  0  0  0  0
    3.2640    2.7552   -5.8856 C   0  0  0  0  0  0  0  0  0  0  0  0
    3.6756    3.5649   -6.9710 N   0  0  0  0  0  0  0  0  0  0  0  0
    2.9464    1.4777   -6.1487 C   0  0  0  0  0  0  0  0  0  0  0  0
    3.9738    4.8938   -6.9970 N   0  0  0  0  0  0  0  0  0  0  0  0
    3.8395    3.0211   -8.2529 C   0  0  0  0  0  0  0  0  0  0  0  0
    3.2581    0.9681   -7.5129 C   0  0  0  0  0  0  0  0  0  0  0  0
    4.2257    5.1065   -8.3021 C   0  0  0  0  0  0  0  0  0  0  0  0
    3.6618    1.6958   -8.5084 N   0  0  0  0  0  0  0  0  0  0  0  0
    4.1991    3.9708   -9.0787 N   0  0  0  0  0  0  0  0  0  0  0  0
    3.1434   -0.5196   -7.7275 C   0  0  0  0  0  0  0  0  0  0  0  0
    4.5266    6.4524   -8.9241 C   0  0  0  0  0  0  0  0  0  0  0  0
    3.9788    7.4945   -8.2326 F   0  0  0  0  0  0  0  0  0  0  0  0
    5.8804    6.6872   -8.8902 F   0  0  0  0  0  0  0  0  0  0  0  0
    4.1112    6.5592  -10.3832 C   0  0  0  0  0  0  0  0  0  0  0  0
    2.6281    6.3650  -10.5805 C   0  0  0  0  0  0  0  0  0  0  0  0
    1.8401    6.2134   -9.6486 O   0  0  0  0  0  0  0  0  0  0  0  0
    2.1223    6.3842  -12.0007 C   0  0  0  0  0  0  0  0  0  0  0  0
    6.3344    0.4853   -2.6846 H   0  0  0  0  0  0  0  0  0  0  0  0
    4.9707    3.8800   -0.4053 H   0  0  0  0  0  0  0  0  0  0  0  0
    4.8389    1.0763   -4.4770 H   0  0  0  0  0  0  0  0  0  0  0  0
    3.4141    4.4690   -2.2174 H   0  0  0  0  0  0  0  0  0  0  0  0
    3.2382    4.3394   -4.6548 H   0  0  0  0  0  0  0  0  0  0  0  0
    2.5714    0.7971   -5.3941 H   0  0  0  0  0  0  0  0  0  0  0  0
    2.9243   -1.0416   -6.7918 H   0  0  0  0  0  0  0  0  0  0  0  0
    4.0947   -0.8963   -8.1174 H   0  0  0  0  0  0  0  0  0  0  0  0
    2.3509   -0.7233   -8.4498 H   0  0  0  0  0  0  0  0  0  0  0  0
    4.6451    5.8167  -10.9904 H   0  0  0  0  0  0  0  0  0  0  0  0
    4.3727    7.5518  -10.7679 H   0  0  0  0  0  0  0  0  0  0  0  0
    2.9393    6.5768  -12.7009 H   0  0  0  0  0  0  0  0  0  0  0  0
    1.3802    7.1800  -12.1054 H   0  0  0  0  0  0  0  0  0  0  0  0
    1.6746    5.4162  -12.2393 H   0  0  0  0  0  0  0  0  0  0  0  0
  1  2  1  0  0  0  0
  2  3  1  0  0  0  0
  2  4  1  0  0  0  0
  2  5  1  0  0  0  0
  5  6  2  0  0  0  0
  5  7  1  0  0  0  0
  6  8  1  0  0  0  0
  6 29  1  0  0  0  0
  7  9  2  0  0  0  0
  7 30  1  0  0  0  0
  8 10  2  0  0  0  0
  8 31  1  0  0  0  0
  9 10  1  0  0  0  0
  9 32  1  0  0  0  0
 10 11  1  0  0  0  0
 11 12  1  0  0  0  0
 11 33  1  0  0  0  0
 12 13  1  0  0  0  0
 12 14  2  0  0  0  0
 13 15  1  0  0  0  0
 13 16  1  0  0  0  0
 14 17  1  0  0  0  0
 14 34  1  0  0  0  0
 15 18  2  0  0  0  0
 16 19  1  0  0  0  0
 16 20  2  0  0  0  0
 17 21  1  0  0  0  0
 17 19  2  0  0  0  0
 18 22  1  0  0  0  0
 18 20  1  0  0  0  0
 21 35  1  0  0  0  0
 21 36  1  0  0  0  0
 21 37  1  0  0  0  0
 22 23  1  0  0  0  0
 22 24  1  0  0  0  0
 22 25  1  0  0  0  0
 25 26  1  0  0  0  0
 25 38  1  0  0  0  0
 25 39  1  0  0  0  0
 26 27  2  0  0  0  0
 26 28  1  0  0  0  0
 28 40  1  0  0  0  0
 28 41  1  0  0  0  0
 28 42  1  0  0  0  0
M  END
>  <ID>
148

>  <Parent ID>
3

>  <Generation>
2

>  <Parent Generation>
1

>  <Child No>
7

>  <Fitness>
0.94434

>  <SkelSpheres sim score>
0.94302

>  <FragFp sim score>
0.94565

$$$$
Compound 21
 OpenBabel11072204203D

 45 47  0  0  0  0  0  0  0  0999 V2000
    6.2681   -5.3685   -1.5072 F   0  0  0  0  0  0  0  0  0  0  0  0
    7.5317   -4.9920   -1.8517 C   0  0  0  0  0  0  0  0  0  0  0  0
    8.0840   -4.4609   -0.7263 F   0  0  0  0  0  0  0  0  0  0  0  0
    8.2076   -6.1503   -2.0925 F   0  0  0  0  0  0  0  0  0  0  0  0
    7.5812   -4.0506   -3.0294 C   0  0  0  0  0  0  0  0  0  0  0  0
    6.4074   -3.6541   -3.6752 C   0  0  0  0  0  0  0  0  0  0  0  0
    8.8068   -3.5897   -3.5286 C   0  0  0  0  0  0  0  0  0  0  0  0
    6.4653   -2.8921   -4.8459 C   0  0  0  0  0  0  0  0  0  0  0  0
    8.8597   -2.8186   -4.6988 C   0  0  0  0  0  0  0  0  0  0  0  0
    7.6921   -2.5192   -5.4149 C   0  0  0  0  0  0  0  0  0  0  0  0
    7.8062   -1.8151   -6.6512 N   0  0  0  0  0  0  0  0  0  0  0  0
    6.7205   -1.6550   -7.5184 C   0  0  0  0  0  0  0  0  0  0  0  0
    6.7588   -2.2772   -8.7868 N   0  0  0  0  0  0  0  0  0  0  0  0
    5.6293   -0.9362   -7.2118 C   0  0  0  0  0  0  0  0  0  0  0  0
    7.7758   -2.9704   -9.3782 N   0  0  0  0  0  0  0  0  0  0  0  0
    5.6542   -2.2369   -9.6478 C   0  0  0  0  0  0  0  0  0  0  0  0
    4.4619   -1.0276   -8.1405 C   0  0  0  0  0  0  0  0  0  0  0  0
    7.2649   -3.2535  -10.5924 C   0  0  0  0  0  0  0  0  0  0  0  0
    4.4782   -1.6472   -9.2870 N   0  0  0  0  0  0  0  0  0  0  0  0
    5.9571   -2.8578  -10.7621 N   0  0  0  0  0  0  0  0  0  0  0  0
    3.1480   -0.4404   -7.6007 C   0  0  2  0  0  0  0  0  0  0  0  0
    8.0375   -3.9286  -11.7094 C   0  0  0  0  0  0  0  0  0  0  0  0
    2.5333   -1.4729   -6.7422 N   0  0  0  0  0  0  0  0  0  0  0  0
    2.1897   -0.0020   -8.6944 C   0  0  0  0  0  0  0  0  0  0  0  0
    7.6329   -3.4547  -12.9276 F   0  0  0  0  0  0  0  0  0  0  0  0
    9.3703   -3.6324  -11.6344 F   0  0  0  0  0  0  0  0  0  0  0  0
    7.8784   -5.4484  -11.7126 C   0  0  0  0  0  0  0  0  0  0  0  0
    8.6381   -6.0958  -12.8658 C   0  0  0  0  0  0  0  0  0  0  0  0
    5.4337   -3.9609   -3.2953 H   0  0  0  0  0  0  0  0  0  0  0  0
    9.7350   -3.8521   -3.0216 H   0  0  0  0  0  0  0  0  0  0  0  0
    5.5162   -2.6488   -5.3120 H   0  0  0  0  0  0  0  0  0  0  0  0
    9.8274   -2.4847   -5.0645 H   0  0  0  0  0  0  0  0  0  0  0  0
    8.6233   -2.1708   -7.1580 H   0  0  0  0  0  0  0  0  0  0  0  0
    5.5168   -0.4020   -6.2769 H   0  0  0  0  0  0  0  0  0  0  0  0
    3.3904    0.4235   -6.9732 H   0  0  0  0  0  0  0  0  0  0  0  0
    2.2569   -2.2585   -7.3338 H   0  0  0  0  0  0  0  0  0  0  0  0
    1.6623   -1.1091   -6.3555 H   0  0  0  0  0  0  0  0  0  0  0  0
    1.8623   -0.8430   -9.3157 H   0  0  0  0  0  0  0  0  0  0  0  0
    2.6715    0.7283   -9.3530 H   0  0  0  0  0  0  0  0  0  0  0  0
    1.2980    0.4665   -8.2643 H   0  0  0  0  0  0  0  0  0  0  0  0
    6.8190   -5.7175  -11.8000 H   0  0  0  0  0  0  0  0  0  0  0  0
    8.2506   -5.8661  -10.7703 H   0  0  0  0  0  0  0  0  0  0  0  0
    8.2640   -5.7436  -13.8330 H   0  0  0  0  0  0  0  0  0  0  0  0
    8.5204   -7.1842  -12.8368 H   0  0  0  0  0  0  0  0  0  0  0  0
    9.7084   -5.8712  -12.8110 H   0  0  0  0  0  0  0  0  0  0  0  0
  1  2  1  0  0  0  0
  2  3  1  0  0  0  0
  2  4  1  0  0  0  0
  2  5  1  0  0  0  0
  5  6  2  0  0  0  0
  5  7  1  0  0  0  0
  6  8  1  0  0  0  0
  6 29  1  0  0  0  0
  7  9  2  0  0  0  0
  7 30  1  0  0  0  0
  8 10  2  0  0  0  0
  8 31  1  0  0  0  0
  9 10  1  0  0  0  0
  9 32  1  0  0  0  0
 10 11  1  0  0  0  0
 11 12  1  0  0  0  0
 11 33  1  0  0  0  0
 12 13  1  0  0  0  0
 12 14  2  0  0  0  0
 13 15  1  0  0  0  0
 13 16  1  0  0  0  0
 14 17  1  0  0  0  0
 14 34  1  0  0  0  0
 15 18  2  0  0  0  0
 16 19  1  0  0  0  0
 16 20  2  0  0  0  0
 17 19  2  0  0  0  0
 18 22  1  0  0  0  0
 18 20  1  0  0  0  0
 21 24  1  0  0  0  0
 21 23  1  0  0  0  0
 21 17  1  0  0  0  0
 21 35  1  1  0  0  0
 22 25  1  0  0  0  0
 22 26  1  0  0  0  0
 22 27  1  0  0  0  0
 23 36  1  0  0  0  0
 23 37  1  0  0  0  0
 24 38  1  0  0  0  0
 24 39  1  0  0  0  0
 24 40  1  0  0  0  0
 27 28  1  0  0  0  0
 27 41  1  0  0  0  0
 27 42  1  0  0  0  0
 28 43  1  0  0  0  0
 28 44  1  0  0  0  0
 28 45  1  0  0  0  0
M  END
>  <ID>
153

>  <Parent ID>
54

>  <Generation>
2

>  <Parent Generation>
1

>  <Child No>
3

>  <Fitness>
0.95322

>  <SkelSpheres sim score>
0.93996

>  <FragFp sim score>
0.96667

$$$$
Compound 22
 OpenBabel11072204203D

 45 47  0  0  0  0  0  0  0  0999 V2000
    7.5087    0.6914   -0.6475 F   0  0  0  0  0  0  0  0  0  0  0  0
    6.7794    1.8089   -0.3628 C   0  0  0  0  0  0  0  0  0  0  0  0
    6.2365    1.6004    0.8697 F   0  0  0  0  0  0  0  0  0  0  0  0
    7.6877    2.8135   -0.2129 F   0  0  0  0  0  0  0  0  0  0  0  0
    5.7420    2.1326   -1.4075 C   0  0  0  0  0  0  0  0  0  0  0  0
    5.6032    1.3355   -2.5467 C   0  0  0  0  0  0  0  0  0  0  0  0
    4.9236    3.2657   -1.2839 C   0  0  0  0  0  0  0  0  0  0  0  0
    4.7395    1.7174   -3.5764 C   0  0  0  0  0  0  0  0  0  0  0  0
    4.0523    3.6395   -2.3173 C   0  0  0  0  0  0  0  0  0  0  0  0
    3.9973    2.9078   -3.5095 C   0  0  0  0  0  0  0  0  0  0  0  0
    3.1701    3.3830   -4.5731 N   0  0  0  0  0  0  0  0  0  0  0  0
    3.2059    2.8027   -5.8478 C   0  0  0  0  0  0  0  0  0  0  0  0
    3.6523    3.5653   -6.9381 N   0  0  0  0  0  0  0  0  0  0  0  0
    2.8331    1.5376   -6.0861 C   0  0  0  0  0  0  0  0  0  0  0  0
    3.9596    4.8924   -6.9898 N   0  0  0  0  0  0  0  0  0  0  0  0
    3.7881    2.9929   -8.2011 C   0  0  0  0  0  0  0  0  0  0  0  0
    3.1757    0.9159   -7.4121 C   0  0  0  0  0  0  0  0  0  0  0  0
    4.2381    5.0692   -8.2957 C   0  0  0  0  0  0  0  0  0  0  0  0
    3.5986    1.6591   -8.4108 N   0  0  0  0  0  0  0  0  0  0  0  0
    4.1419    3.9256   -9.0577 N   0  0  0  0  0  0  0  0  0  0  0  0
    3.0897   -0.4680   -7.5750 N   0  0  0  0  0  0  0  0  0  0  0  0
    4.5520    6.4116   -8.9225 C   0  0  0  0  0  0  0  0  0  0  0  0
    3.4728   -1.1097   -8.8339 C   0  0  0  0  0  0  0  0  0  0  0  0
    2.7553   -1.4220   -6.5211 C   0  0  0  0  0  0  0  0  0  0  0  0
    4.5966    7.4141   -7.9926 F   0  0  0  0  0  0  0  0  0  0  0  0
    5.7965    6.3982   -9.4918 F   0  0  0  0  0  0  0  0  0  0  0  0
    3.5527    6.8175  -10.0073 C   0  0  0  0  0  0  0  0  0  0  0  0
    2.1293    6.9739   -9.4900 C   0  0  0  0  0  0  0  0  0  0  0  0
    6.1951    0.4287   -2.6641 H   0  0  0  0  0  0  0  0  0  0  0  0
    4.9843    3.8845   -0.3896 H   0  0  0  0  0  0  0  0  0  0  0  0
    4.7167    1.0748   -4.4499 H   0  0  0  0  0  0  0  0  0  0  0  0
    3.4416    4.5312   -2.1945 H   0  0  0  0  0  0  0  0  0  0  0  0
    3.2756    4.4019   -4.6412 H   0  0  0  0  0  0  0  0  0  0  0  0
    2.3925    0.9444   -5.3010 H   0  0  0  0  0  0  0  0  0  0  0  0
    3.8058   -0.4078   -9.6036 H   0  0  0  0  0  0  0  0  0  0  0  0
    2.6239   -1.6700   -9.2372 H   0  0  0  0  0  0  0  0  0  0  0  0
    4.2969   -1.8118   -8.6598 H   0  0  0  0  0  0  0  0  0  0  0  0
    2.7199   -0.9925   -5.5186 H   0  0  0  0  0  0  0  0  0  0  0  0
    3.5097   -2.2159   -6.4734 H   0  0  0  0  0  0  0  0  0  0  0  0
    1.7823   -1.8789   -6.7254 H   0  0  0  0  0  0  0  0  0  0  0  0
    3.5681    6.0904  -10.8281 H   0  0  0  0  0  0  0  0  0  0  0  0
    3.8723    7.7747  -10.4374 H   0  0  0  0  0  0  0  0  0  0  0  0
    1.7378    6.0292   -9.1000 H   0  0  0  0  0  0  0  0  0  0  0  0
    1.4673    7.2977  -10.2993 H   0  0  0  0  0  0  0  0  0  0  0  0
    2.0813    7.7223   -8.6929 H   0  0  0  0  0  0  0  0  0  0  0  0
  1  2  1  0  0  0  0
  2  3  1  0  0  0  0
  2  4  1  0  0  0  0
  2  5  1  0  0  0  0
  5  6  2  0  0  0  0
  5  7  1  0  0  0  0
  6  8  1  0  0  0  0
  6 29  1  0  0  0  0
  7  9  2  0  0  0  0
  7 30  1  0  0  0  0
  8 10  2  0  0  0  0
  8 31  1  0  0  0  0
  9 10  1  0  0  0  0
  9 32  1  0  0  0  0
 10 11  1  0  0  0  0
 11 12  1  0  0  0  0
 11 33  1  0  0  0  0
 12 13  1  0  0  0  0
 12 14  2  0  0  0  0
 13 15  1  0  0  0  0
 13 16  1  0  0  0  0
 14 17  1  0  0  0  0
 14 34  1  0  0  0  0
 15 18  2  0  0  0  0
 16 19  1  0  0  0  0
 16 20  2  0  0  0  0
 17 21  1  0  0  0  0
 17 19  2  0  0  0  0
 18 22  1  0  0  0  0
 18 20  1  0  0  0  0
 21 23  1  0  0  0  0
 21 24  1  0  0  0  0
 22 25  1  0  0  0  0
 22 26  1  0  0  0  0
 22 27  1  0  0  0  0
 23 35  1  0  0  0  0
 23 36  1  0  0  0  0
 23 37  1  0  0  0  0
 24 38  1  0  0  0  0
 24 39  1  0  0  0  0
 24 40  1  0  0  0  0
 27 28  1  0  0  0  0
 27 41  1  0  0  0  0
 27 42  1  0  0  0  0
 28 43  1  0  0  0  0
 28 44  1  0  0  0  0
 28 45  1  0  0  0  0
M  END
>  <ID>
157

>  <Parent ID>
73

>  <Generation>
3

>  <Parent Generation>
2

>  <Child No>
4

>  <Fitness>
0.95311

>  <SkelSpheres sim score>
0.92418

>  <FragFp sim score>
0.98295

$$$$
Compound 23
 OpenBabel11072204203D

 38 40  0  0  0  0  0  0  0  0999 V2000
    3.1350   -0.5953    1.0422 F   0  0  0  0  0  0  0  0  0  0  0  0
    2.8539    0.1094   -0.0899 C   0  0  0  0  0  0  0  0  0  0  0  0
    1.6710    0.7393    0.1459 F   0  0  0  0  0  0  0  0  0  0  0  0
    3.7959    1.0907   -0.1586 F   0  0  0  0  0  0  0  0  0  0  0  0
    2.8227   -0.7420   -1.3359 C   0  0  0  0  0  0  0  0  0  0  0  0
    3.0405   -2.1231   -1.2654 C   0  0  0  0  0  0  0  0  0  0  0  0
    2.6194   -0.1545   -2.5941 C   0  0  0  0  0  0  0  0  0  0  0  0
    3.0955   -2.8920   -2.4293 C   0  0  0  0  0  0  0  0  0  0  0  0
    2.6792   -0.9276   -3.7594 C   0  0  0  0  0  0  0  0  0  0  0  0
    2.9116   -2.3048   -3.6890 C   0  0  0  0  0  0  0  0  0  0  0  0
    3.1203   -3.0310   -4.8988 N   0  0  0  0  0  0  0  0  0  0  0  0
    2.9099   -4.4164   -4.9478 C   0  0  0  0  0  0  0  0  0  0  0  0
    4.0168   -5.2532   -5.2033 N   0  0  0  0  0  0  0  0  0  0  0  0
    1.7095   -4.9899   -4.7402 C   0  0  0  0  0  0  0  0  0  0  0  0
    5.3106   -4.9029   -5.4261 N   0  0  0  0  0  0  0  0  0  0  0  0
    3.8917   -6.6450   -5.2069 C   0  0  0  0  0  0  0  0  0  0  0  0
    1.6971   -6.4654   -4.7841 C   0  0  0  0  0  0  0  0  0  0  0  0
    5.9219   -6.0983   -5.5143 C   0  0  0  0  0  0  0  0  0  0  0  0
    2.6914   -7.2582   -4.9992 N   0  0  0  0  0  0  0  0  0  0  0  0
    5.0754   -7.1782   -5.4050 N   0  0  0  0  0  0  0  0  0  0  0  0
    0.4791   -6.9848   -4.5558 O   0  0  0  0  0  0  0  0  0  0  0  0
    7.4072   -6.2775   -5.7452 C   0  0  0  0  0  0  0  0  0  0  0  0
    8.0524   -5.0787   -5.8781 F   0  0  0  0  0  0  0  0  0  0  0  0
    7.9877   -6.8749   -4.6590 F   0  0  0  0  0  0  0  0  0  0  0  0
    7.7314   -7.1299   -6.9708 C   0  0  0  0  0  0  0  0  0  0  0  0
    7.2372   -6.5199   -8.2748 C   0  0  0  0  0  0  0  0  0  0  0  0
    3.2046   -2.6086   -0.3044 H   0  0  0  0  0  0  0  0  0  0  0  0
    2.4416    0.9174   -2.6733 H   0  0  0  0  0  0  0  0  0  0  0  0
    3.3216   -3.9506   -2.3321 H   0  0  0  0  0  0  0  0  0  0  0  0
    2.5478   -0.4460   -4.7264 H   0  0  0  0  0  0  0  0  0  0  0  0
    4.0876   -2.8302   -5.1951 H   0  0  0  0  0  0  0  0  0  0  0  0
    0.8169   -4.4170   -4.5375 H   0  0  0  0  0  0  0  0  0  0  0  0
   -0.2161   -6.3313   -4.3902 H   0  0  0  0  0  0  0  0  0  0  0  0
    7.3142   -8.1372   -6.8531 H   0  0  0  0  0  0  0  0  0  0  0  0
    8.8196   -7.2519   -7.0340 H   0  0  0  0  0  0  0  0  0  0  0  0
    6.1462   -6.4351   -8.2896 H   0  0  0  0  0  0  0  0  0  0  0  0
    7.5331   -7.1484   -9.1204 H   0  0  0  0  0  0  0  0  0  0  0  0
    7.6625   -5.5230   -8.4279 H   0  0  0  0  0  0  0  0  0  0  0  0
  1  2  1  0  0  0  0
  2  3  1  0  0  0  0
  2  4  1  0  0  0  0
  2  5  1  0  0  0  0
  5  6  2  0  0  0  0
  5  7  1  0  0  0  0
  6  8  1  0  0  0  0
  6 27  1  0  0  0  0
  7  9  2  0  0  0  0
  7 28  1  0  0  0  0
  8 10  2  0  0  0  0
  8 29  1  0  0  0  0
  9 10  1  0  0  0  0
  9 30  1  0  0  0  0
 10 11  1  0  0  0  0
 11 12  1  0  0  0  0
 11 31  1  0  0  0  0
 12 13  1  0  0  0  0
 12 14  2  0  0  0  0
 13 15  1  0  0  0  0
 13 16  1  0  0  0  0
 14 17  1  0  0  0  0
 14 32  1  0  0  0  0
 15 18  2  0  0  0  0
 16 19  1  0  0  0  0
 16 20  2  0  0  0  0
 17 21  1  0  0  0  0
 17 19  2  0  0  0  0
 18 22  1  0  0  0  0
 18 20  1  0  0  0  0
 21 33  1  0  0  0  0
 22 23  1  0  0  0  0
 22 24  1  0  0  0  0
 22 25  1  0  0  0  0
 25 26  1  0  0  0  0
 25 34  1  0  0  0  0
 25 35  1  0  0  0  0
 26 36  1  0  0  0  0
 26 37  1  0  0  0  0
 26 38  1  0  0  0  0
M  END
>  <ID>
162

>  <Parent ID>
58

>  <Generation>
2

>  <Parent Generation>
1

>  <Child No>
2

>  <Fitness>
0.96552

>  <SkelSpheres sim score>
0.97533

>  <FragFp sim score>
0.9558

$$$$
Compound 24
 OpenBabel11072204203D

 42 44  0  0  0  0  0  0  0  0999 V2000
    3.1862   -0.5884    1.0451 F   0  0  0  0  0  0  0  0  0  0  0  0
    2.9099    0.1228   -0.0840 C   0  0  0  0  0  0  0  0  0  0  0  0
    1.7339    0.7638    0.1563 F   0  0  0  0  0  0  0  0  0  0  0  0
    3.8616    1.0951   -0.1510 F   0  0  0  0  0  0  0  0  0  0  0  0
    2.8683   -0.7235   -1.3330 C   0  0  0  0  0  0  0  0  0  0  0  0
    3.0783   -2.1059   -1.2694 C   0  0  0  0  0  0  0  0  0  0  0  0
    2.6613   -0.1300   -2.5879 C   0  0  0  0  0  0  0  0  0  0  0  0
    3.1230   -2.8697   -2.4370 C   0  0  0  0  0  0  0  0  0  0  0  0
    2.7109   -0.8982   -3.7571 C   0  0  0  0  0  0  0  0  0  0  0  0
    2.9381   -2.2767   -3.6944 C   0  0  0  0  0  0  0  0  0  0  0  0
    3.1354   -3.0002   -4.9069 N   0  0  0  0  0  0  0  0  0  0  0  0
    2.9222   -4.3836   -4.9511 C   0  0  0  0  0  0  0  0  0  0  0  0
    4.0206   -5.2301   -5.2048 N   0  0  0  0  0  0  0  0  0  0  0  0
    1.7228   -4.9521   -4.7313 C   0  0  0  0  0  0  0  0  0  0  0  0
    5.3190   -4.8980   -5.4447 N   0  0  0  0  0  0  0  0  0  0  0  0
    3.8821   -6.6197   -5.1915 C   0  0  0  0  0  0  0  0  0  0  0  0
    1.6680   -6.4432   -4.7455 C   0  0  0  0  0  0  0  0  0  0  0  0
    5.9145   -6.1040   -5.5231 C   0  0  0  0  0  0  0  0  0  0  0  0
    2.6827   -7.2251   -4.9664 N   0  0  0  0  0  0  0  0  0  0  0  0
    5.0593   -7.1703   -5.3889 N   0  0  0  0  0  0  0  0  0  0  0  0
    0.3318   -7.0793   -4.4622 C   0  0  0  0  0  0  0  0  0  0  0  0
    7.3997   -6.3025   -5.7582 C   0  0  0  0  0  0  0  0  0  0  0  0
    7.9236   -5.2973   -6.5246 F   0  0  0  0  0  0  0  0  0  0  0  0
    8.0760   -6.2458   -4.5702 F   0  0  0  0  0  0  0  0  0  0  0  0
    7.7524   -7.6300   -6.4306 C   0  0  0  0  0  0  0  0  0  0  0  0
    7.1510   -7.7612   -7.8279 C   0  0  0  0  0  0  0  0  0  0  0  0
    7.5126   -9.0702   -8.4823 C   0  0  0  0  0  0  0  0  0  0  0  0
    8.2427   -9.9181   -7.9810 O   0  0  0  0  0  0  0  0  0  0  0  0
    3.2428   -2.5969   -0.3112 H   0  0  0  0  0  0  0  0  0  0  0  0
    2.4868    0.9428   -2.6615 H   0  0  0  0  0  0  0  0  0  0  0  0
    3.3399   -3.9307   -2.3447 H   0  0  0  0  0  0  0  0  0  0  0  0
    2.5740   -0.4124   -4.7210 H   0  0  0  0  0  0  0  0  0  0  0  0
    4.0944   -2.7957   -5.2211 H   0  0  0  0  0  0  0  0  0  0  0  0
    0.8295   -4.3780   -4.5264 H   0  0  0  0  0  0  0  0  0  0  0  0
   -0.4486   -6.3285   -4.3167 H   0  0  0  0  0  0  0  0  0  0  0  0
    0.4100   -7.6871   -3.5558 H   0  0  0  0  0  0  0  0  0  0  0  0
    0.0507   -7.7212   -5.3011 H   0  0  0  0  0  0  0  0  0  0  0  0
    7.4354   -8.4685   -5.7969 H   0  0  0  0  0  0  0  0  0  0  0  0
    8.8436   -7.7020   -6.4985 H   0  0  0  0  0  0  0  0  0  0  0  0
    7.5078   -6.9557   -8.4780 H   0  0  0  0  0  0  0  0  0  0  0  0
    6.0578   -7.7157   -7.7990 H   0  0  0  0  0  0  0  0  0  0  0  0
    7.0743   -9.2283   -9.4830 H   0  0  0  0  0  0  0  0  0  0  0  0
  1  2  1  0  0  0  0
  2  3  1  0  0  0  0
  2  4  1  0  0  0  0
  2  5  1  0  0  0  0
  5  6  2  0  0  0  0
  5  7  1  0  0  0  0
  6  8  1  0  0  0  0
  6 29  1  0  0  0  0
  7  9  2  0  0  0  0
  7 30  1  0  0  0  0
  8 10  2  0  0  0  0
  8 31  1  0  0  0  0
  9 10  1  0  0  0  0
  9 32  1  0  0  0  0
 10 11  1  0  0  0  0
 11 12  1  0  0  0  0
 11 33  1  0  0  0  0
 12 13  1  0  0  0  0
 12 14  2  0  0  0  0
 13 15  1  0  0  0  0
 13 16  1  0  0  0  0
 14 17  1  0  0  0  0
 14 34  1  0  0  0  0
 15 18  2  0  0  0  0
 16 19  1  0  0  0  0
 16 20  2  0  0  0  0
 17 21  1  0  0  0  0
 17 19  2  0  0  0  0
 18 22  1  0  0  0  0
 18 20  1  0  0  0  0
 21 35  1  0  0  0  0
 21 36  1  0  0  0  0
 21 37  1  0  0  0  0
 22 23  1  0  0  0  0
 22 24  1  0  0  0  0
 22 25  1  0  0  0  0
 25 26  1  0  0  0  0
 25 38  1  0  0  0  0
 25 39  1  0  0  0  0
 26 27  1  0  0  0  0
 26 40  1  0  0  0  0
 26 41  1  0  0  0  0
 27 28  2  0  0  0  0
 27 42  1  0  0  0  0
M  END
>  <ID>
227

>  <Parent ID>
148

>  <Generation>
3

>  <Parent Generation>
2

>  <Child No>
7

>  <Fitness>
0.94843

>  <SkelSpheres sim score>
0.94605

>  <FragFp sim score>
0.95082

$$$$
Compound 25
 OpenBabel11072204203D

 37 39  0  0  0  0  0  0  0  0999 V2000
    3.2596   -0.5979    1.0453 F   0  0  0  0  0  0  0  0  0  0  0  0
    2.9700    0.1171   -0.0784 C   0  0  0  0  0  0  0  0  0  0  0  0
    1.8016    0.7643    0.1812 F   0  0  0  0  0  0  0  0  0  0  0  0
    3.9263    1.0839   -0.1576 F   0  0  0  0  0  0  0  0  0  0  0  0
    2.9057   -0.7270   -1.3279 C   0  0  0  0  0  0  0  0  0  0  0  0
    3.1037   -2.1114   -1.2677 C   0  0  0  0  0  0  0  0  0  0  0  0
    2.6933   -0.1299   -2.5801 C   0  0  0  0  0  0  0  0  0  0  0  0
    3.1358   -2.8735   -2.4371 C   0  0  0  0  0  0  0  0  0  0  0  0
    2.7305   -0.8966   -3.7508 C   0  0  0  0  0  0  0  0  0  0  0  0
    2.9504   -2.2767   -3.6920 C   0  0  0  0  0  0  0  0  0  0  0  0
    3.1427   -2.9973   -4.9067 N   0  0  0  0  0  0  0  0  0  0  0  0
    2.9204   -4.3800   -4.9589 C   0  0  0  0  0  0  0  0  0  0  0  0
    4.0135   -5.2309   -5.2218 N   0  0  0  0  0  0  0  0  0  0  0  0
    1.7188   -4.9406   -4.7378 C   0  0  0  0  0  0  0  0  0  0  0  0
    5.3171   -4.9019   -5.4440 N   0  0  0  0  0  0  0  0  0  0  0  0
    3.8685   -6.6206   -5.2144 C   0  0  0  0  0  0  0  0  0  0  0  0
    1.6573   -6.4323   -4.7546 C   0  0  0  0  0  0  0  0  0  0  0  0
    5.9069   -6.1106   -5.5427 C   0  0  0  0  0  0  0  0  0  0  0  0
    2.6667   -7.2206   -4.9812 N   0  0  0  0  0  0  0  0  0  0  0  0
    5.0415   -7.1756   -5.4178 N   0  0  0  0  0  0  0  0  0  0  0  0
    0.3196   -7.0622   -4.4588 C   0  0  0  0  0  0  0  0  0  0  0  0
    7.3941   -6.3016   -5.7474 C   0  0  0  0  0  0  0  0  0  0  0  0
    7.7976   -5.7569   -6.9348 F   0  0  0  0  0  0  0  0  0  0  0  0
    8.1087   -5.6480   -4.7809 F   0  0  0  0  0  0  0  0  0  0  0  0
    7.8321   -7.7567   -5.7329 C   0  0  0  0  0  0  0  0  0  0  0  0
    3.2706   -2.6053   -0.3116 H   0  0  0  0  0  0  0  0  0  0  0  0
    2.5269    0.9444   -2.6509 H   0  0  0  0  0  0  0  0  0  0  0  0
    3.3463   -3.9361   -2.3486 H   0  0  0  0  0  0  0  0  0  0  0  0
    2.5924   -0.4081   -4.7133 H   0  0  0  0  0  0  0  0  0  0  0  0
    4.1042   -2.8010   -5.2185 H   0  0  0  0  0  0  0  0  0  0  0  0
    0.8277   -4.3649   -4.5268 H   0  0  0  0  0  0  0  0  0  0  0  0
   -0.4561   -6.3069   -4.3106 H   0  0  0  0  0  0  0  0  0  0  0  0
    0.4020   -7.6652   -3.5494 H   0  0  0  0  0  0  0  0  0  0  0  0
    0.0317   -7.7082   -5.2923 H   0  0  0  0  0  0  0  0  0  0  0  0
    7.3557   -8.3257   -6.5381 H   0  0  0  0  0  0  0  0  0  0  0  0
    7.5979   -8.2353   -4.7758 H   0  0  0  0  0  0  0  0  0  0  0  0
    8.9156   -7.8253   -5.8776 H   0  0  0  0  0  0  0  0  0  0  0  0
  1  2  1  0  0  0  0
  2  3  1  0  0  0  0
  2  4  1  0  0  0  0
  2  5  1  0  0  0  0
  5  6  2  0  0  0  0
  5  7  1  0  0  0  0
  6  8  1  0  0  0  0
  6 26  1  0  0  0  0
  7  9  2  0  0  0  0
  7 27  1  0  0  0  0
  8 10  2  0  0  0  0
  8 28  1  0  0  0  0
  9 10  1  0  0  0  0
  9 29  1  0  0  0  0
 10 11  1  0  0  0  0
 11 12  1  0  0  0  0
 11 30  1  0  0  0  0
 12 13  1  0  0  0  0
 12 14  2  0  0  0  0
 13 15  1  0  0  0  0
 13 16  1  0  0  0  0
 14 17  1  0  0  0  0
 14 31  1  0  0  0  0
 15 18  2  0  0  0  0
 16 19  1  0  0  0  0
 16 20  2  0  0  0  0
 17 21  1  0  0  0  0
 17 19  2  0  0  0  0
 18 22  1  0  0  0  0
 18 20  1  0  0  0  0
 21 32  1  0  0  0  0
 21 33  1  0  0  0  0
 21 34  1  0  0  0  0
 22 23  1  0  0  0  0
 22 24  1  0  0  0  0
 22 25  1  0  0  0  0
 25 35  1  0  0  0  0
 25 36  1  0  0  0  0
 25 37  1  0  0  0  0
M  END
>  <ID>
240

>  <Parent ID>
1

>  <Generation>
1

>  <Parent Generation>
0

>  <Child No>
8

>  <Fitness>
0.94825

>  <SkelSpheres sim score>
0.93686

>  <FragFp sim score>
0.95977

$$$$
Compound 26
 OpenBabel11072204203D

 42 44  0  0  0  0  0  0  0  0999 V2000
    3.2535   -0.5970    1.0447 F   0  0  0  0  0  0  0  0  0  0  0  0
    2.9699    0.1169   -0.0813 C   0  0  0  0  0  0  0  0  0  0  0  0
    1.8002    0.7642    0.1716 F   0  0  0  0  0  0  0  0  0  0  0  0
    3.9265    1.0837   -0.1565 F   0  0  0  0  0  0  0  0  0  0  0  0
    2.9115   -0.7286   -1.3302 C   0  0  0  0  0  0  0  0  0  0  0  0
    3.1131   -2.1125   -1.2691 C   0  0  0  0  0  0  0  0  0  0  0  0
    2.6994   -0.1330   -2.5832 C   0  0  0  0  0  0  0  0  0  0  0  0
    3.1471   -2.8757   -2.4378 C   0  0  0  0  0  0  0  0  0  0  0  0
    2.7388   -0.9006   -3.7533 C   0  0  0  0  0  0  0  0  0  0  0  0
    2.9606   -2.2803   -3.6937 C   0  0  0  0  0  0  0  0  0  0  0  0
    3.1557   -3.0012   -4.9082 N   0  0  0  0  0  0  0  0  0  0  0  0
    2.9322   -4.3830   -4.9609 C   0  0  0  0  0  0  0  0  0  0  0  0
    4.0257   -5.2374   -5.2173 N   0  0  0  0  0  0  0  0  0  0  0  0
    1.7284   -4.9437   -4.7438 C   0  0  0  0  0  0  0  0  0  0  0  0
    5.3311   -4.9146   -5.4337 N   0  0  0  0  0  0  0  0  0  0  0  0
    3.8760   -6.6258   -5.2098 C   0  0  0  0  0  0  0  0  0  0  0  0
    1.6631   -6.4334   -4.7614 C   0  0  0  0  0  0  0  0  0  0  0  0
    5.9186   -6.1235   -5.5310 C   0  0  0  0  0  0  0  0  0  0  0  0
    2.6732   -7.2230   -4.9807 N   0  0  0  0  0  0  0  0  0  0  0  0
    5.0492   -7.1844   -5.4024 N   0  0  0  0  0  0  0  0  0  0  0  0
    0.3253   -7.0626   -4.4675 C   0  0  0  0  0  0  0  0  0  0  0  0
    7.4090   -6.3260   -5.7387 C   0  0  0  0  0  0  0  0  0  0  0  0
    7.8099   -5.7691   -6.9204 F   0  0  0  0  0  0  0  0  0  0  0  0
    8.1238   -5.6839   -4.7608 F   0  0  0  0  0  0  0  0  0  0  0  0
    7.8159   -7.8288   -5.7180 C   0  0  0  0  0  0  0  0  0  0  0  0
    9.2661   -8.1030   -5.9045 N   0  0  0  0  0  0  0  0  0  0  0  0
    9.5432   -9.5309   -5.8302 C   0  0  0  0  0  0  0  0  0  0  0  0
    3.2809   -2.6049   -0.3122 H   0  0  0  0  0  0  0  0  0  0  0  0
    2.5309    0.9409   -2.6552 H   0  0  0  0  0  0  0  0  0  0  0  0
    3.3588   -3.9379   -2.3483 H   0  0  0  0  0  0  0  0  0  0  0  0
    2.6000   -0.4133   -4.7162 H   0  0  0  0  0  0  0  0  0  0  0  0
    4.1176   -2.8035   -5.2188 H   0  0  0  0  0  0  0  0  0  0  0  0
    0.8386   -4.3648   -4.5353 H   0  0  0  0  0  0  0  0  0  0  0  0
   -0.4501   -6.3061   -4.3201 H   0  0  0  0  0  0  0  0  0  0  0  0
    0.4046   -7.6675   -3.5591 H   0  0  0  0  0  0  0  0  0  0  0  0
    0.0377   -7.7063   -5.3026 H   0  0  0  0  0  0  0  0  0  0  0  0
    7.2668   -8.3505   -6.5112 H   0  0  0  0  0  0  0  0  0  0  0  0
    7.5114   -8.2537   -4.7525 H   0  0  0  0  0  0  0  0  0  0  0  0
    9.7942   -7.6057   -5.1851 H   0  0  0  0  0  0  0  0  0  0  0  0
    9.0121  -10.0770   -6.6167 H   0  0  0  0  0  0  0  0  0  0  0  0
    9.2660   -9.9472   -4.8564 H   0  0  0  0  0  0  0  0  0  0  0  0
   10.6140   -9.7040   -5.9777 H   0  0  0  0  0  0  0  0  0  0  0  0
  1  2  1  0  0  0  0
  2  3  1  0  0  0  0
  2  4  1  0  0  0  0
  2  5  1  0  0  0  0
  5  6  2  0  0  0  0
  5  7  1  0  0  0  0
  6  8  1  0  0  0  0
  6 28  1  0  0  0  0
  7  9  2  0  0  0  0
  7 29  1  0  0  0  0
  8 10  2  0  0  0  0
  8 30  1  0  0  0  0
  9 10  1  0  0  0  0
  9 31  1  0  0  0  0
 10 11  1  0  0  0  0
 11 12  1  0  0  0  0
 11 32  1  0  0  0  0
 12 13  1  0  0  0  0
 12 14  2  0  0  0  0
 13 15  1  0  0  0  0
 13 16  1  0  0  0  0
 14 17  1  0  0  0  0
 14 33  1  0  0  0  0
 15 18  2  0  0  0  0
 16 19  1  0  0  0  0
 16 20  2  0  0  0  0
 17 21  1  0  0  0  0
 17 19  2  0  0  0  0
 18 22  1  0  0  0  0
 18 20  1  0  0  0  0
 21 34  1  0  0  0  0
 21 35  1  0  0  0  0
 21 36  1  0  0  0  0
 22 23  1  0  0  0  0
 22 24  1  0  0  0  0
 22 25  1  0  0  0  0
 25 26  1  0  0  0  0
 25 37  1  0  0  0  0
 25 38  1  0  0  0  0
 26 27  1  0  0  0  0
 26 39  1  0  0  0  0
 27 40  1  0  0  0  0
 27 41  1  0  0  0  0
 27 42  1  0  0  0  0
M  END
>  <ID>
241

>  <Parent ID>
1

>  <Generation>
1

>  <Parent Generation>
0

>  <Child No>
6

>  <Fitness>
0.95164

>  <SkelSpheres sim score>
0.94314

>  <FragFp sim score>
0.96023

$$$$
Compound 27
 OpenBabel11072204203D

 37 39  0  0  0  0  0  0  0  0999 V2000
    0.9674   -0.7873   -0.0575 Cl  0  0  0  0  0  0  0  0  0  0  0  0
    2.6630   -0.4745    0.0216 C   0  0  0  0  0  0  0  0  0  0  0  0
    3.4313   -1.5135   -0.0470 N   0  0  0  0  0  0  0  0  0  0  0  0
    3.1293    0.9331    0.1332 C   0  0  0  0  0  0  0  0  0  0  0  0
    4.7684   -1.2703   -0.0116 C   0  0  0  0  0  0  0  0  0  0  0  0
    4.4535    1.1699    0.0657 C   0  0  0  0  0  0  0  0  0  0  0  0
    5.7448   -2.1421   -0.0312 N   0  0  0  0  0  0  0  0  0  0  0  0
    5.3016    0.0267    0.0262 N   0  0  0  0  0  0  0  0  0  0  0  0
    5.0450    2.4368    0.0821 N   0  0  0  0  0  0  0  0  0  0  0  0
    6.8836   -1.3798    0.0001 C   0  0  0  0  0  0  0  0  0  0  0  0
    6.6661   -0.0475    0.0186 N   0  0  0  0  0  0  0  0  0  0  0  0
    4.5818    3.6382   -0.5111 C   0  0  0  0  0  0  0  0  0  0  0  0
    8.2463   -2.0481   -0.0348 C   0  0  0  0  0  0  0  0  0  0  0  0
    3.4262    3.7239   -1.2980 C   0  0  0  0  0  0  0  0  0  0  0  0
    5.2598    4.8415   -0.2478 C   0  0  0  0  0  0  0  0  0  0  0  0
    9.2664   -1.1459   -0.0295 F   0  0  0  0  0  0  0  0  0  0  0  0
    8.4250   -2.8044    1.0877 F   0  0  0  0  0  0  0  0  0  0  0  0
    8.4217   -2.9758   -1.2420 C   0  0  0  0  0  0  0  0  0  0  0  0
    2.9725    4.9404   -1.8209 C   0  0  0  0  0  0  0  0  0  0  0  0
    4.8227    6.0651   -0.7877 C   0  0  0  0  0  0  0  0  0  0  0  0
    8.3870   -2.2410   -2.5738 C   0  0  0  0  0  0  0  0  0  0  0  0
    3.6726    6.1269   -1.5874 C   0  0  0  0  0  0  0  0  0  0  0  0
    3.2064    7.4244   -2.2028 C   0  0  0  0  0  0  0  0  0  0  0  0
    2.0877    7.2855   -2.9721 F   0  0  0  0  0  0  0  0  0  0  0  0
    2.9002    8.3714   -1.2747 F   0  0  0  0  0  0  0  0  0  0  0  0
    4.1438    7.9833   -3.0168 F   0  0  0  0  0  0  0  0  0  0  0  0
    2.3774    1.7023    0.2456 H   0  0  0  0  0  0  0  0  0  0  0  0
    6.0627    2.4044    0.1870 H   0  0  0  0  0  0  0  0  0  0  0  0
    2.8553    2.8427   -1.5676 H   0  0  0  0  0  0  0  0  0  0  0  0
    6.1477    4.8411    0.3814 H   0  0  0  0  0  0  0  0  0  0  0  0
    7.6546   -3.7595   -1.2354 H   0  0  0  0  0  0  0  0  0  0  0  0
    9.3857   -3.4906   -1.1516 H   0  0  0  0  0  0  0  0  0  0  0  0
    2.0675    4.9477   -2.4272 H   0  0  0  0  0  0  0  0  0  0  0  0
    5.3868    6.9737   -0.5763 H   0  0  0  0  0  0  0  0  0  0  0  0
    7.4217   -1.7528   -2.7380 H   0  0  0  0  0  0  0  0  0  0  0  0
    8.5491   -2.9439   -3.3968 H   0  0  0  0  0  0  0  0  0  0  0  0
    9.1716   -1.4787   -2.6198 H   0  0  0  0  0  0  0  0  0  0  0  0
  1  2  1  0  0  0  0
  2  3  2  0  0  0  0
  2  4  1  0  0  0  0
  3  5  1  0  0  0  0
  4  6  2  0  0  0  0
  4 27  1  0  0  0  0
  5  7  2  0  0  0  0
  5  8  1  0  0  0  0
  6  9  1  0  0  0  0
  6  8  1  0  0  0  0
  7 10  1  0  0  0  0
  8 11  1  0  0  0  0
  9 12  1  0  0  0  0
  9 28  1  0  0  0  0
 10 13  1  0  0  0  0
 10 11  2  0  0  0  0
 12 14  2  0  0  0  0
 12 15  1  0  0  0  0
 13 16  1  0  0  0  0
 13 17  1  0  0  0  0
 13 18  1  0  0  0  0
 14 19  1  0  0  0  0
 14 29  1  0  0  0  0
 15 20  2  0  0  0  0
 15 30  1  0  0  0  0
 18 21  1  0  0  0  0
 18 31  1  0  0  0  0
 18 32  1  0  0  0  0
 19 22  2  0  0  0  0
 19 33  1  0  0  0  0
 20 22  1  0  0  0  0
 20 34  1  0  0  0  0
 21 35  1  0  0  0  0
 21 36  1  0  0  0  0
 21 37  1  0  0  0  0
 22 23  1  0  0  0  0
 23 24  1  0  0  0  0
 23 25  1  0  0  0  0
 23 26  1  0  0  0  0
M  END
>  <ID>
242

>  <Parent ID>
1

>  <Generation>
1

>  <Parent Generation>
0

>  <Child No>
1

>  <Fitness>
0.97914

>  <SkelSpheres sim score>
0.97533

>  <FragFp sim score>
0.98295

$$$$
Compound 28
 OpenBabel11072204203D

 38 40  0  0  0  0  0  0  0  0999 V2000
    7.6270   -0.0812   -0.6159 F   0  0  0  0  0  0  0  0  0  0  0  0
    6.9666    1.0253   -1.0591 C   0  0  0  0  0  0  0  0  0  0  0  0
    6.3828    1.5785    0.0385 F   0  0  0  0  0  0  0  0  0  0  0  0
    7.9345    1.8997   -1.4519 F   0  0  0  0  0  0  0  0  0  0  0  0
    5.9807    0.7350   -2.1650 C   0  0  0  0  0  0  0  0  0  0  0  0
    5.8316   -0.5586   -2.6722 C   0  0  0  0  0  0  0  0  0  0  0  0
    5.2223    1.7656   -2.7367 C   0  0  0  0  0  0  0  0  0  0  0  0
    5.0095   -0.7987   -3.7784 C   0  0  0  0  0  0  0  0  0  0  0  0
    4.3940    1.5175   -3.8407 C   0  0  0  0  0  0  0  0  0  0  0  0
    4.3271    0.2438   -4.4222 C   0  0  0  0  0  0  0  0  0  0  0  0
    3.5381    0.0668   -5.5970 N   0  0  0  0  0  0  0  0  0  0  0  0
    3.5496   -1.1061   -6.3585 C   0  0  0  0  0  0  0  0  0  0  0  0
    4.0210   -1.0528   -7.6961 N   0  0  0  0  0  0  0  0  0  0  0  0
    3.1160   -2.2928   -5.8922 C   0  0  0  0  0  0  0  0  0  0  0  0
    4.4243    0.0201   -8.4318 N   0  0  0  0  0  0  0  0  0  0  0  0
    4.1231   -2.2166   -8.4714 C   0  0  0  0  0  0  0  0  0  0  0  0
    3.3240   -3.4639   -6.7784 C   0  0  0  0  0  0  0  0  0  0  0  0
    4.6959   -0.5318   -9.6323 C   0  0  0  0  0  0  0  0  0  0  0  0
    3.7993   -3.4480   -7.9824 N   0  0  0  0  0  0  0  0  0  0  0  0
    4.5686   -1.9015   -9.6628 N   0  0  0  0  0  0  0  0  0  0  0  0
    3.0446   -4.8039   -6.3147 C   0  0  0  0  0  0  0  0  0  0  0  0
    5.0760    0.2437  -10.8810 C   0  0  0  0  0  0  0  0  0  0  0  0
    2.8256   -5.8588   -5.8754 N   0  0  0  0  0  0  0  0  0  0  0  0
    4.5803   -0.3767  -11.9944 F   0  0  0  0  0  0  0  0  0  0  0  0
    4.5076    1.4872  -10.8792 F   0  0  0  0  0  0  0  0  0  0  0  0
    6.5855    0.3960  -11.0550 C   0  0  0  0  0  0  0  0  0  0  0  0
    6.9365    1.1329  -12.3429 C   0  0  0  0  0  0  0  0  0  0  0  0
    6.3782   -1.3910   -2.2297 H   0  0  0  0  0  0  0  0  0  0  0  0
    5.2921    2.7774   -2.3386 H   0  0  0  0  0  0  0  0  0  0  0  0
    4.9666   -1.8203   -4.1377 H   0  0  0  0  0  0  0  0  0  0  0  0
    3.8235    2.3433   -4.2611 H   0  0  0  0  0  0  0  0  0  0  0  0
    3.6404    0.8950   -6.1950 H   0  0  0  0  0  0  0  0  0  0  0  0
    2.6967   -2.4345   -4.9045 H   0  0  0  0  0  0  0  0  0  0  0  0
    7.0662   -0.5884  -11.0774 H   0  0  0  0  0  0  0  0  0  0  0  0
    7.0059    0.9518  -10.2074 H   0  0  0  0  0  0  0  0  0  0  0  0
    6.5812    0.5827  -13.2189 H   0  0  0  0  0  0  0  0  0  0  0  0
    8.0216    1.2456  -12.4348 H   0  0  0  0  0  0  0  0  0  0  0  0
    6.4908    2.1326  -12.3629 H   0  0  0  0  0  0  0  0  0  0  0  0
  1  2  1  0  0  0  0
  2  3  1  0  0  0  0
  2  4  1  0  0  0  0
  2  5  1  0  0  0  0
  5  6  2  0  0  0  0
  5  7  1  0  0  0  0
  6  8  1  0  0  0  0
  6 28  1  0  0  0  0
  7  9  2  0  0  0  0
  7 29  1  0  0  0  0
  8 10  2  0  0  0  0
  8 30  1  0  0  0  0
  9 10  1  0  0  0  0
  9 31  1  0  0  0  0
 10 11  1  0  0  0  0
 11 12  1  0  0  0  0
 11 32  1  0  0  0  0
 12 13  1  0  0  0  0
 12 14  2  0  0  0  0
 13 15  1  0  0  0  0
 13 16  1  0  0  0  0
 14 17  1  0  0  0  0
 14 33  1  0  0  0  0
 15 18  2  0  0  0  0
 16 19  1  0  0  0  0
 16 20  2  0  0  0  0
 17 21  1  0  0  0  0
 17 19  2  0  0  0  0
 18 22  1  0  0  0  0
 18 20  1  0  0  0  0
 21 23  3  0  0  0  0
 22 24  1  0  0  0  0
 22 25  1  0  0  0  0
 22 26  1  0  0  0  0
 26 27  1  0  0  0  0
 26 34  1  0  0  0  0
 26 35  1  0  0  0  0
 27 36  1  0  0  0  0
 27 37  1  0  0  0  0
 27 38  1  0  0  0  0
M  END
>  <ID>
243

>  <Parent ID>
1

>  <Generation>
1

>  <Parent Generation>
0

>  <Child No>
2

>  <Fitness>
0.96837

>  <SkelSpheres sim score>
0.94314

>  <FragFp sim score>
0.99429

$$$$
Compound 29
 OpenBabel11072204203D

 40 42  0  0  0  0  0  0  0  0999 V2000
    7.5311   -0.1425   -0.5498 F   0  0  0  0  0  0  0  0  0  0  0  0
    6.8933    0.9798   -0.9883 C   0  0  0  0  0  0  0  0  0  0  0  0
    6.2959    1.5222    0.1068 F   0  0  0  0  0  0  0  0  0  0  0  0
    7.8798    1.8475   -1.3486 F   0  0  0  0  0  0  0  0  0  0  0  0
    5.9249    0.7189   -2.1156 C   0  0  0  0  0  0  0  0  0  0  0  0
    5.7648   -0.5671   -2.6356 C   0  0  0  0  0  0  0  0  0  0  0  0
    5.1952    1.7681   -2.6922 C   0  0  0  0  0  0  0  0  0  0  0  0
    4.9594   -0.7819   -3.7567 C   0  0  0  0  0  0  0  0  0  0  0  0
    4.3813    1.5444   -3.8121 C   0  0  0  0  0  0  0  0  0  0  0  0
    4.3011    0.2761   -4.4019 C   0  0  0  0  0  0  0  0  0  0  0  0
    3.5273    0.1156   -5.5902 N   0  0  0  0  0  0  0  0  0  0  0  0
    3.5372   -1.0647   -6.3400 C   0  0  0  0  0  0  0  0  0  0  0  0
    4.0121   -1.0316   -7.6720 N   0  0  0  0  0  0  0  0  0  0  0  0
    3.1080   -2.2473   -5.8612 C   0  0  0  0  0  0  0  0  0  0  0  0
    4.3895    0.0393   -8.4291 N   0  0  0  0  0  0  0  0  0  0  0  0
    4.1296   -2.2023   -8.4263 C   0  0  0  0  0  0  0  0  0  0  0  0
    3.3703   -3.4516   -6.6998 C   0  0  0  0  0  0  0  0  0  0  0  0
    4.7006   -0.5359   -9.6058 C   0  0  0  0  0  0  0  0  0  0  0  0
    3.8358   -3.4301   -7.9121 N   0  0  0  0  0  0  0  0  0  0  0  0
    4.5642   -1.9021   -9.6243 N   0  0  0  0  0  0  0  0  0  0  0  0
    3.1260   -4.7922   -6.0573 C   0  0  0  0  0  0  0  0  0  0  0  0
    5.0898    0.2216  -10.8581 C   0  0  0  0  0  0  0  0  0  0  0  0
    4.5650    1.4842  -10.8628 F   0  0  0  0  0  0  0  0  0  0  0  0
    6.4455    0.3912  -10.9139 F   0  0  0  0  0  0  0  0  0  0  0  0
    4.6565   -0.4654  -12.1463 C   0  0  0  0  0  0  0  0  0  0  0  0
    3.1516   -0.6111  -12.2354 C   0  0  0  0  0  0  0  0  0  0  0  0
    2.8457   -1.1840  -13.4326 F   0  0  0  0  0  0  0  0  0  0  0  0
    6.2906   -1.4129   -2.1942 H   0  0  0  0  0  0  0  0  0  0  0  0
    5.2769    2.7751   -2.2850 H   0  0  0  0  0  0  0  0  0  0  0  0
    4.9119   -1.7988   -4.1288 H   0  0  0  0  0  0  0  0  0  0  0  0
    3.8339    2.3828   -4.2379 H   0  0  0  0  0  0  0  0  0  0  0  0
    3.6740    0.9317   -6.1951 H   0  0  0  0  0  0  0  0  0  0  0  0
    2.6653   -2.3633   -4.8799 H   0  0  0  0  0  0  0  0  0  0  0  0
    2.8847   -4.6860   -4.9960 H   0  0  0  0  0  0  0  0  0  0  0  0
    4.0305   -5.4016   -6.1459 H   0  0  0  0  0  0  0  0  0  0  0  0
    2.3007   -5.2926   -6.5679 H   0  0  0  0  0  0  0  0  0  0  0  0
    5.1337   -1.4475  -12.2503 H   0  0  0  0  0  0  0  0  0  0  0  0
    5.0032    0.1189  -13.0068 H   0  0  0  0  0  0  0  0  0  0  0  0
    2.6478    0.3585  -12.1942 H   0  0  0  0  0  0  0  0  0  0  0  0
    2.7403   -1.2553  -11.4541 H   0  0  0  0  0  0  0  0  0  0  0  0
  1  2  1  0  0  0  0
  2  3  1  0  0  0  0
  2  4  1  0  0  0  0
  2  5  1  0  0  0  0
  5  6  2  0  0  0  0
  5  7  1  0  0  0  0
  6  8  1  0  0  0  0
  6 28  1  0  0  0  0
  7  9  2  0  0  0  0
  7 29  1  0  0  0  0
  8 10  2  0  0  0  0
  8 30  1  0  0  0  0
  9 10  1  0  0  0  0
  9 31  1  0  0  0  0
 10 11  1  0  0  0  0
 11 12  1  0  0  0  0
 11 32  1  0  0  0  0
 12 13  1  0  0  0  0
 12 14  2  0  0  0  0
 13 15  1  0  0  0  0
 13 16  1  0  0  0  0
 14 17  1  0  0  0  0
 14 33  1  0  0  0  0
 15 18  2  0  0  0  0
 16 19  1  0  0  0  0
 16 20  2  0  0  0  0
 17 21  1  0  0  0  0
 17 19  2  0  0  0  0
 18 22  1  0  0  0  0
 18 20  1  0  0  0  0
 21 34  1  0  0  0  0
 21 35  1  0  0  0  0
 21 36  1  0  0  0  0
 22 23  1  0  0  0  0
 22 24  1  0  0  0  0
 22 25  1  0  0  0  0
 25 26  1  0  0  0  0
 25 37  1  0  0  0  0
 25 38  1  0  0  0  0
 26 27  1  0  0  0  0
 26 39  1  0  0  0  0
 26 40  1  0  0  0  0
M  END
>  <ID>
254

>  <Parent ID>
3

>  <Generation>
2

>  <Parent Generation>
1

>  <Child No>
3

>  <Fitness>
0.96781

>  <SkelSpheres sim score>
0.95818

>  <FragFp sim score>
0.97753

$$$$
Compound 30
 OpenBabel11072204203D

 46 48  0  0  0  0  0  0  0  0999 V2000
    7.4112    0.5914   -0.6324 F   0  0  0  0  0  0  0  0  0  0  0  0
    6.7071    1.7303   -0.3764 C   0  0  0  0  0  0  0  0  0  0  0  0
    6.1514    1.5582    0.8530 F   0  0  0  0  0  0  0  0  0  0  0  0
    7.6387    2.7146   -0.2358 F   0  0  0  0  0  0  0  0  0  0  0  0
    5.6913    2.0593   -1.4428 C   0  0  0  0  0  0  0  0  0  0  0  0
    5.5531    1.2427   -2.5667 C   0  0  0  0  0  0  0  0  0  0  0  0
    4.8964    3.2111   -1.3510 C   0  0  0  0  0  0  0  0  0  0  0  0
    4.7073    1.6195   -3.6114 C   0  0  0  0  0  0  0  0  0  0  0  0
    4.0428    3.5798   -2.4015 C   0  0  0  0  0  0  0  0  0  0  0  0
    3.9855    2.8234   -3.5787 C   0  0  0  0  0  0  0  0  0  0  0  0
    3.1718    3.2815   -4.6591 N   0  0  0  0  0  0  0  0  0  0  0  0
    3.2138    2.6886   -5.9262 C   0  0  0  0  0  0  0  0  0  0  0  0
    3.6578    3.4472   -7.0317 N   0  0  0  0  0  0  0  0  0  0  0  0
    2.8535    1.4108   -6.1490 C   0  0  0  0  0  0  0  0  0  0  0  0
    3.9808    4.7723   -7.0979 N   0  0  0  0  0  0  0  0  0  0  0  0
    3.8211    2.8575   -8.2908 C   0  0  0  0  0  0  0  0  0  0  0  0
    3.1930    0.8351   -7.4816 C   0  0  0  0  0  0  0  0  0  0  0  0
    4.2333    4.9398   -8.4111 C   0  0  0  0  0  0  0  0  0  0  0  0
    3.6316    1.5200   -8.4955 N   0  0  0  0  0  0  0  0  0  0  0  0
    4.1966    3.7794   -9.1485 N   0  0  0  0  0  0  0  0  0  0  0  0
    3.0625   -0.6751   -7.6050 C   0  0  0  0  0  0  0  0  0  0  0  0
    4.5265    6.2791   -9.0598 C   0  0  0  0  0  0  0  0  0  0  0  0
    4.3984   -1.3651   -7.8868 C   0  0  0  0  0  0  0  0  0  0  0  0
    4.0237    6.3160  -10.3316 F   0  0  0  0  0  0  0  0  0  0  0  0
    3.8980    7.2948   -8.3955 F   0  0  0  0  0  0  0  0  0  0  0  0
    6.0198    6.5965   -9.1283 C   0  0  0  0  0  0  0  0  0  0  0  0
    5.4426   -1.1520   -6.7984 C   0  0  0  0  0  0  0  0  0  0  0  0
    6.2844    7.9374   -9.8060 C   0  0  0  0  0  0  0  0  0  0  0  0
    6.1255    0.3202   -2.6569 H   0  0  0  0  0  0  0  0  0  0  0  0
    4.9582    3.8458   -0.4676 H   0  0  0  0  0  0  0  0  0  0  0  0
    4.6795    0.9562   -4.4672 H   0  0  0  0  0  0  0  0  0  0  0  0
    3.4463    4.4841   -2.3015 H   0  0  0  0  0  0  0  0  0  0  0  0
    3.2568    4.3017   -4.7340 H   0  0  0  0  0  0  0  0  0  0  0  0
    2.4510    0.7704   -5.3747 H   0  0  0  0  0  0  0  0  0  0  0  0
    2.3615   -0.8848   -8.4202 H   0  0  0  0  0  0  0  0  0  0  0  0
    2.6254   -1.0901   -6.6894 H   0  0  0  0  0  0  0  0  0  0  0  0
    4.8062   -1.0201   -8.8433 H   0  0  0  0  0  0  0  0  0  0  0  0
    4.2177   -2.4421   -7.9873 H   0  0  0  0  0  0  0  0  0  0  0  0
    6.5475    5.8146   -9.6872 H   0  0  0  0  0  0  0  0  0  0  0  0
    6.4438    6.6262   -8.1178 H   0  0  0  0  0  0  0  0  0  0  0  0
    5.7187   -0.0970   -6.7071 H   0  0  0  0  0  0  0  0  0  0  0  0
    6.3536   -1.7106   -7.0396 H   0  0  0  0  0  0  0  0  0  0  0  0
    5.0810   -1.5011   -5.8262 H   0  0  0  0  0  0  0  0  0  0  0  0
    5.9187    7.9378  -10.8381 H   0  0  0  0  0  0  0  0  0  0  0  0
    7.3588    8.1465   -9.8302 H   0  0  0  0  0  0  0  0  0  0  0  0
    5.7939    8.7557   -9.2690 H   0  0  0  0  0  0  0  0  0  0  0  0
  1  2  1  0  0  0  0
  2  3  1  0  0  0  0
  2  4  1  0  0  0  0
  2  5  1  0  0  0  0
  5  6  2  0  0  0  0
  5  7  1  0  0  0  0
  6  8  1  0  0  0  0
  6 29  1  0  0  0  0
  7  9  2  0  0  0  0
  7 30  1  0  0  0  0
  8 10  2  0  0  0  0
  8 31  1  0  0  0  0
  9 10  1  0  0  0  0
  9 32  1  0  0  0  0
 10 11  1  0  0  0  0
 11 12  1  0  0  0  0
 11 33  1  0  0  0  0
 12 13  1  0  0  0  0
 12 14  2  0  0  0  0
 13 15  1  0  0  0  0
 13 16  1  0  0  0  0
 14 17  1  0  0  0  0
 14 34  1  0  0  0  0
 15 18  2  0  0  0  0
 16 19  1  0  0  0  0
 16 20  2  0  0  0  0
 17 21  1  0  0  0  0
 17 19  2  0  0  0  0
 18 22  1  0  0  0  0
 18 20  1  0  0  0  0
 21 23  1  0  0  0  0
 21 35  1  0  0  0  0
 21 36  1  0  0  0  0
 22 24  1  0  0  0  0
 22 25  1  0  0  0  0
 22 26  1  0  0  0  0
 23 27  1  0  0  0  0
 23 37  1  0  0  0  0
 23 38  1  0  0  0  0
 26 28  1  0  0  0  0
 26 39  1  0  0  0  0
 26 40  1  0  0  0  0
 27 41  1  0  0  0  0
 27 42  1  0  0  0  0
 27 43  1  0  0  0  0
 28 44  1  0  0  0  0
 28 45  1  0  0  0  0
 28 46  1  0  0  0  0
M  END
>  <ID>
259

>  <Parent ID>
54

>  <Generation>
2

>  <Parent Generation>
1

>  <Child No>
4

>  <Fitness>
0.95856

>  <SkelSpheres sim score>
0.93996

>  <FragFp sim score>
0.97753

$$$$
Compound 31
 OpenBabel11072204203D

 46 48  0  0  0  0  0  0  0  0999 V2000
    7.4806    0.6956   -0.6381 F   0  0  0  0  0  0  0  0  0  0  0  0
    6.7523    1.8219   -0.3905 C   0  0  0  0  0  0  0  0  0  0  0  0
    6.2027    1.6506    0.8406 F   0  0  0  0  0  0  0  0  0  0  0  0
    7.6629    2.8275   -0.2620 F   0  0  0  0  0  0  0  0  0  0  0  0
    5.7258    2.1197   -1.4551 C   0  0  0  0  0  0  0  0  0  0  0  0
    5.5983    1.2893   -2.5693 C   0  0  0  0  0  0  0  0  0  0  0  0
    4.9104    3.2577   -1.3722 C   0  0  0  0  0  0  0  0  0  0  0  0
    4.7426    1.6386   -3.6164 C   0  0  0  0  0  0  0  0  0  0  0  0
    4.0458    3.5981   -2.4238 C   0  0  0  0  0  0  0  0  0  0  0  0
    3.9991    2.8278   -3.5929 C   0  0  0  0  0  0  0  0  0  0  0  0
    3.1726    3.2599   -4.6733 N   0  0  0  0  0  0  0  0  0  0  0  0
    3.2162    2.6568   -5.9350 C   0  0  0  0  0  0  0  0  0  0  0  0
    3.6398    3.4180   -7.0479 N   0  0  0  0  0  0  0  0  0  0  0  0
    2.8747    1.3749   -6.1510 C   0  0  0  0  0  0  0  0  0  0  0  0
    3.9618    4.7414   -7.1165 N   0  0  0  0  0  0  0  0  0  0  0  0
    3.7840    2.8308   -8.3094 C   0  0  0  0  0  0  0  0  0  0  0  0
    3.2038    0.7949   -7.4907 C   0  0  0  0  0  0  0  0  0  0  0  0
    4.2102    4.9111   -8.4313 C   0  0  0  0  0  0  0  0  0  0  0  0
    3.6033    1.4928   -8.5123 N   0  0  0  0  0  0  0  0  0  0  0  0
    4.1448    3.7541   -9.1723 N   0  0  0  0  0  0  0  0  0  0  0  0
    3.0863   -0.7251   -7.5948 C   0  0  0  0  0  0  0  0  0  0  0  0
    4.5333    6.2450   -9.0762 C   0  0  0  0  0  0  0  0  0  0  0  0
    1.6983   -1.1078   -8.0869 C   0  0  0  0  0  0  0  0  0  0  0  0
    4.1795   -1.3276   -8.4727 C   0  0  0  0  0  0  0  0  0  0  0  0
    4.0492    6.3042  -10.3544 F   0  0  0  0  0  0  0  0  0  0  0  0
    3.9032    7.2684   -8.4168 F   0  0  0  0  0  0  0  0  0  0  0  0
    6.0220    6.5834   -9.1178 C   0  0  0  0  0  0  0  0  0  0  0  0
    6.8608    5.6108   -9.9354 C   0  0  0  0  0  0  0  0  0  0  0  0
    6.1893    0.3783   -2.6532 H   0  0  0  0  0  0  0  0  0  0  0  0
    4.9632    3.9025   -0.4960 H   0  0  0  0  0  0  0  0  0  0  0  0
    4.7242    0.9661   -4.4662 H   0  0  0  0  0  0  0  0  0  0  0  0
    3.4327    4.4917   -2.3305 H   0  0  0  0  0  0  0  0  0  0  0  0
    3.2385    4.2804   -4.7578 H   0  0  0  0  0  0  0  0  0  0  0  0
    2.4840    0.7297   -5.3745 H   0  0  0  0  0  0  0  0  0  0  0  0
    3.2175   -1.1406   -6.5871 H   0  0  0  0  0  0  0  0  0  0  0  0
    1.5079   -0.7163   -9.0909 H   0  0  0  0  0  0  0  0  0  0  0  0
    0.9251   -0.7079   -7.4219 H   0  0  0  0  0  0  0  0  0  0  0  0
    1.5867   -2.1966   -8.1150 H   0  0  0  0  0  0  0  0  0  0  0  0
    4.0950   -0.9950   -9.5122 H   0  0  0  0  0  0  0  0  0  0  0  0
    4.1220   -2.4214   -8.4622 H   0  0  0  0  0  0  0  0  0  0  0  0
    5.1724   -1.0404   -8.1086 H   0  0  0  0  0  0  0  0  0  0  0  0
    6.4222    6.6483   -8.0998 H   0  0  0  0  0  0  0  0  0  0  0  0
    6.1350    7.5829   -9.5581 H   0  0  0  0  0  0  0  0  0  0  0  0
    6.8520    4.6078   -9.4997 H   0  0  0  0  0  0  0  0  0  0  0  0
    7.8991    5.9518   -9.9669 H   0  0  0  0  0  0  0  0  0  0  0  0
    6.4994    5.5463  -10.9662 H   0  0  0  0  0  0  0  0  0  0  0  0
  1  2  1  0  0  0  0
  2  3  1  0  0  0  0
  2  4  1  0  0  0  0
  2  5  1  0  0  0  0
  5  6  2  0  0  0  0
  5  7  1  0  0  0  0
  6  8  1  0  0  0  0
  6 29  1  0  0  0  0
  7  9  2  0  0  0  0
  7 30  1  0  0  0  0
  8 10  2  0  0  0  0
  8 31  1  0  0  0  0
  9 10  1  0  0  0  0
  9 32  1  0  0  0  0
 10 11  1  0  0  0  0
 11 12  1  0  0  0  0
 11 33  1  0  0  0  0
 12 13  1  0  0  0  0
 12 14  2  0  0  0  0
 13 15  1  0  0  0  0
 13 16  1  0  0  0  0
 14 17  1  0  0  0  0
 14 34  1  0  0  0  0
 15 18  2  0  0  0  0
 16 19  1  0  0  0  0
 16 20  2  0  0  0  0
 17 21  1  0  0  0  0
 17 19  2  0  0  0  0
 18 22  1  0  0  0  0
 18 20  1  0  0  0  0
 21 23  1  0  0  0  0
 21 24  1  0  0  0  0
 21 35  1  0  0  0  0
 22 25  1  0  0  0  0
 22 26  1  0  0  0  0
 22 27  1  0  0  0  0
 23 36  1  0  0  0  0
 23 37  1  0  0  0  0
 23 38  1  0  0  0  0
 24 39  1  0  0  0  0
 24 40  1  0  0  0  0
 24 41  1  0  0  0  0
 27 28  1  0  0  0  0
 27 42  1  0  0  0  0
 27 43  1  0  0  0  0
 28 44  1  0  0  0  0
 28 45  1  0  0  0  0
 28 46  1  0  0  0  0
M  END
>  <ID>
260

>  <Parent ID>
54

>  <Generation>
2

>  <Parent Generation>
1

>  <Child No>
5

>  <Fitness>
0.95588

>  <SkelSpheres sim score>
0.93996

>  <FragFp sim score>
0.97207

$$$$
Compound 32
 OpenBabel11072204203D

 43 45  0  0  0  0  0  0  0  0999 V2000
    7.5691    0.8020   -0.6712 F   0  0  0  0  0  0  0  0  0  0  0  0
    6.7978    1.8985   -0.4231 C   0  0  0  0  0  0  0  0  0  0  0  0
    6.2575    1.7042    0.8101 F   0  0  0  0  0  0  0  0  0  0  0  0
    7.6679    2.9387   -0.2938 F   0  0  0  0  0  0  0  0  0  0  0  0
    5.7586    2.1548   -1.4868 C   0  0  0  0  0  0  0  0  0  0  0  0
    5.6620    1.3234   -2.6050 C   0  0  0  0  0  0  0  0  0  0  0  0
    4.8990    3.2590   -1.4004 C   0  0  0  0  0  0  0  0  0  0  0  0
    4.7927    1.6412   -3.6520 C   0  0  0  0  0  0  0  0  0  0  0  0
    4.0233    3.5686   -2.4512 C   0  0  0  0  0  0  0  0  0  0  0  0
    4.0068    2.8028   -3.6247 C   0  0  0  0  0  0  0  0  0  0  0  0
    3.1694    3.2133   -4.7043 N   0  0  0  0  0  0  0  0  0  0  0  0
    3.2348    2.6259   -5.9709 C   0  0  0  0  0  0  0  0  0  0  0  0
    3.6306    3.4131   -7.0775 N   0  0  0  0  0  0  0  0  0  0  0  0
    2.9155    1.3388   -6.2077 C   0  0  0  0  0  0  0  0  0  0  0  0
    3.9309    4.7433   -7.1239 N   0  0  0  0  0  0  0  0  0  0  0  0
    3.7788    2.8518   -8.3508 C   0  0  0  0  0  0  0  0  0  0  0  0
    3.2100    0.8075   -7.5694 C   0  0  0  0  0  0  0  0  0  0  0  0
    4.1909    4.9331   -8.4346 C   0  0  0  0  0  0  0  0  0  0  0  0
    3.6007    1.5203   -8.5809 N   0  0  0  0  0  0  0  0  0  0  0  0
    4.1330    3.7896   -9.1968 N   0  0  0  0  0  0  0  0  0  0  0  0
    3.0948   -0.6845   -7.7523 C   0  0  0  0  0  0  0  0  0  0  0  0
    4.5355    6.2684   -9.0602 C   0  0  0  0  0  0  0  0  0  0  0  0
    4.0774    6.3405  -10.3483 F   0  0  0  0  0  0  0  0  0  0  0  0
    3.9030    7.2920   -8.4067 F   0  0  0  0  0  0  0  0  0  0  0  0
    6.0289    6.5892   -9.0786 C   0  0  0  0  0  0  0  0  0  0  0  0
    6.8689    5.5971   -9.8895 C   0  0  0  0  0  0  0  0  0  0  0  0
    8.3344    5.9964   -9.9025 C   0  0  0  0  0  0  0  0  0  0  0  0
    8.7942    6.0252   -8.6229 F   0  0  0  0  0  0  0  0  0  0  0  0
    6.2889    0.4366   -2.6911 H   0  0  0  0  0  0  0  0  0  0  0  0
    4.9280    3.9037   -0.5228 H   0  0  0  0  0  0  0  0  0  0  0  0
    4.7973    0.9734   -4.5058 H   0  0  0  0  0  0  0  0  0  0  0  0
    3.3772    4.4388   -2.3554 H   0  0  0  0  0  0  0  0  0  0  0  0
    3.2005    4.2363   -4.7782 H   0  0  0  0  0  0  0  0  0  0  0  0
    2.5438    0.6726   -5.4386 H   0  0  0  0  0  0  0  0  0  0  0  0
    2.8742   -1.1875   -6.8063 H   0  0  0  0  0  0  0  0  0  0  0  0
    4.0452   -1.0707   -8.1340 H   0  0  0  0  0  0  0  0  0  0  0  0
    2.3012   -0.9028   -8.4702 H   0  0  0  0  0  0  0  0  0  0  0  0
    6.4049    6.6525   -8.0507 H   0  0  0  0  0  0  0  0  0  0  0  0
    6.1545    7.5891   -9.5149 H   0  0  0  0  0  0  0  0  0  0  0  0
    6.4995    5.5391  -10.9194 H   0  0  0  0  0  0  0  0  0  0  0  0
    6.7889    4.5987   -9.4470 H   0  0  0  0  0  0  0  0  0  0  0  0
    8.4851    6.9868  -10.3407 H   0  0  0  0  0  0  0  0  0  0  0  0
    8.9347    5.2684  -10.4546 H   0  0  0  0  0  0  0  0  0  0  0  0
  1  2  1  0  0  0  0
  2  3  1  0  0  0  0
  2  4  1  0  0  0  0
  2  5  1  0  0  0  0
  5  6  2  0  0  0  0
  5  7  1  0  0  0  0
  6  8  1  0  0  0  0
  6 29  1  0  0  0  0
  7  9  2  0  0  0  0
  7 30  1  0  0  0  0
  8 10  2  0  0  0  0
  8 31  1  0  0  0  0
  9 10  1  0  0  0  0
  9 32  1  0  0  0  0
 10 11  1  0  0  0  0
 11 12  1  0  0  0  0
 11 33  1  0  0  0  0
 12 13  1  0  0  0  0
 12 14  2  0  0  0  0
 13 15  1  0  0  0  0
 13 16  1  0  0  0  0
 14 17  1  0  0  0  0
 14 34  1  0  0  0  0
 15 18  2  0  0  0  0
 16 19  1  0  0  0  0
 16 20  2  0  0  0  0
 17 21  1  0  0  0  0
 17 19  2  0  0  0  0
 18 22  1  0  0  0  0
 18 20  1  0  0  0  0
 21 35  1  0  0  0  0
 21 36  1  0  0  0  0
 21 37  1  0  0  0  0
 22 23  1  0  0  0  0
 22 24  1  0  0  0  0
 22 25  1  0  0  0  0
 25 26  1  0  0  0  0
 25 38  1  0  0  0  0
 25 39  1  0  0  0  0
 26 27  1  0  0  0  0
 26 40  1  0  0  0  0
 26 41  1  0  0  0  0
 27 28  1  0  0  0  0
 27 42  1  0  0  0  0
 27 43  1  0  0  0  0
M  END
>  <ID>
296

>  <Parent ID>
254

>  <Generation>
3

>  <Parent Generation>
2

>  <Child No>
8

>  <Fitness>
0.9308

>  <SkelSpheres sim score>
0.94605

>  <FragFp sim score>
0.91579

$$$$
Compound 33
 OpenBabel11072204203D

 49 51  0  0  0  0  0  0  0  0999 V2000
    4.3021   -0.7374    1.0434 F   0  0  0  0  0  0  0  0  0  0  0  0
    3.8773   -0.0029   -0.0230 C   0  0  0  0  0  0  0  0  0  0  0  0
    2.7846    0.6848    0.4087 F   0  0  0  0  0  0  0  0  0  0  0  0
    4.8462    0.9289   -0.2404 F   0  0  0  0  0  0  0  0  0  0  0  0
    3.5952   -0.8322   -1.2515 C   0  0  0  0  0  0  0  0  0  0  0  0
    3.7620   -2.2216   -1.2318 C   0  0  0  0  0  0  0  0  0  0  0  0
    3.2014   -0.2167   -2.4500 C   0  0  0  0  0  0  0  0  0  0  0  0
    3.5777   -2.9726   -2.3940 C   0  0  0  0  0  0  0  0  0  0  0  0
    3.0210   -0.9727   -3.6144 C   0  0  0  0  0  0  0  0  0  0  0  0
    3.2033   -2.3593   -3.5983 C   0  0  0  0  0  0  0  0  0  0  0  0
    3.1482   -3.0761   -4.8285 N   0  0  0  0  0  0  0  0  0  0  0  0
    2.8937   -4.4514   -4.8345 C   0  0  0  0  0  0  0  0  0  0  0  0
    3.8944   -5.3226   -5.3078 N   0  0  0  0  0  0  0  0  0  0  0  0
    1.7519   -4.9927   -4.3769 C   0  0  0  0  0  0  0  0  0  0  0  0
    5.1240   -5.0113   -5.8037 N   0  0  0  0  0  0  0  0  0  0  0  0
    3.7286   -6.7101   -5.2707 C   0  0  0  0  0  0  0  0  0  0  0  0
    1.6630   -6.4832   -4.3595 C   0  0  0  0  0  0  0  0  0  0  0  0
    5.6644   -6.2271   -6.0106 C   0  0  0  0  0  0  0  0  0  0  0  0
    2.5898   -7.2887   -4.7954 N   0  0  0  0  0  0  0  0  0  0  0  0
    4.8264   -7.2789   -5.7169 N   0  0  0  0  0  0  0  0  0  0  0  0
    0.3922   -7.0725   -3.7746 C   0  0  0  0  0  0  0  0  0  0  0  0
    7.0596   -6.4480   -6.5597 C   0  0  0  0  0  0  0  0  0  0  0  0
    0.6512   -7.9404   -2.5457 C   0  0  0  0  0  0  0  0  0  0  0  0
    7.7021   -5.2664   -6.8109 F   0  0  0  0  0  0  0  0  0  0  0  0
    7.8390   -7.0867   -5.6336 F   0  0  0  0  0  0  0  0  0  0  0  0
    7.0851   -7.2830   -7.8401 C   0  0  0  0  0  0  0  0  0  0  0  0
    1.2769   -7.1787   -1.3861 C   0  0  0  0  0  0  0  0  0  0  0  0
    6.3228   -6.6322   -8.9965 C   0  0  0  0  0  0  0  0  0  0  0  0
    6.3858   -7.4839  -10.2569 C   0  0  0  0  0  0  0  0  0  0  0  0
    4.0666   -2.7300   -0.3178 H   0  0  0  0  0  0  0  0  0  0  0  0
    3.0572    0.8624   -2.4872 H   0  0  0  0  0  0  0  0  0  0  0  0
    3.7665   -4.0417   -2.3446 H   0  0  0  0  0  0  0  0  0  0  0  0
    2.7384   -0.4715   -4.5380 H   0  0  0  0  0  0  0  0  0  0  0  0
    4.0335   -2.8936   -5.3217 H   0  0  0  0  0  0  0  0  0  0  0  0
    0.9327   -4.3963   -3.9956 H   0  0  0  0  0  0  0  0  0  0  0  0
   -0.0838   -7.6764   -4.5562 H   0  0  0  0  0  0  0  0  0  0  0  0
   -0.3111   -6.2716   -3.5181 H   0  0  0  0  0  0  0  0  0  0  0  0
    1.2957   -8.7870   -2.8085 H   0  0  0  0  0  0  0  0  0  0  0  0
   -0.3054   -8.3621   -2.2102 H   0  0  0  0  0  0  0  0  0  0  0  0
    6.6840   -8.2843   -7.6400 H   0  0  0  0  0  0  0  0  0  0  0  0
    8.1313   -7.4245   -8.1371 H   0  0  0  0  0  0  0  0  0  0  0  0
    2.2681   -6.7951   -1.6472 H   0  0  0  0  0  0  0  0  0  0  0  0
    1.3948   -7.8417   -0.5228 H   0  0  0  0  0  0  0  0  0  0  0  0
    0.6489   -6.3355   -1.0818 H   0  0  0  0  0  0  0  0  0  0  0  0
    6.7420   -5.6418   -9.2087 H   0  0  0  0  0  0  0  0  0  0  0  0
    5.2707   -6.4885   -8.7266 H   0  0  0  0  0  0  0  0  0  0  0  0
    7.4198   -7.6141  -10.5894 H   0  0  0  0  0  0  0  0  0  0  0  0
    5.8248   -7.0038  -11.0630 H   0  0  0  0  0  0  0  0  0  0  0  0
    5.9516   -8.4725  -10.0806 H   0  0  0  0  0  0  0  0  0  0  0  0
  1  2  1  0  0  0  0
  2  3  1  0  0  0  0
  2  4  1  0  0  0  0
  2  5  1  0  0  0  0
  5  6  2  0  0  0  0
  5  7  1  0  0  0  0
  6  8  1  0  0  0  0
  6 30  1  0  0  0  0
  7  9  2  0  0  0  0
  7 31  1  0  0  0  0
  8 10  2  0  0  0  0
  8 32  1  0  0  0  0
  9 10  1  0  0  0  0
  9 33  1  0  0  0  0
 10 11  1  0  0  0  0
 11 12  1  0  0  0  0
 11 34  1  0  0  0  0
 12 13  1  0  0  0  0
 12 14  2  0  0  0  0
 13 15  1  0  0  0  0
 13 16  1  0  0  0  0
 14 17  1  0  0  0  0
 14 35  1  0  0  0  0
 15 18  2  0  0  0  0
 16 19  1  0  0  0  0
 16 20  2  0  0  0  0
 17 21  1  0  0  0  0
 17 19  2  0  0  0  0
 18 22  1  0  0  0  0
 18 20  1  0  0  0  0
 21 23  1  0  0  0  0
 21 36  1  0  0  0  0
 21 37  1  0  0  0  0
 22 24  1  0  0  0  0
 22 25  1  0  0  0  0
 22 26  1  0  0  0  0
 23 27  1  0  0  0  0
 23 38  1  0  0  0  0
 23 39  1  0  0  0  0
 26 28  1  0  0  0  0
 26 40  1  0  0  0  0
 26 41  1  0  0  0  0
 27 42  1  0  0  0  0
 27 43  1  0  0  0  0
 27 44  1  0  0  0  0
 28 29  1  0  0  0  0
 28 45  1  0  0  0  0
 28 46  1  0  0  0  0
 29 47  1  0  0  0  0
 29 48  1  0  0  0  0
 29 49  1  0  0  0  0
M  END
>  <ID>
302

>  <Parent ID>
259

>  <Generation>
3

>  <Parent Generation>
2

>  <Child No>
7

>  <Fitness>
0.93185

>  <SkelSpheres sim score>
0.88831

>  <FragFp sim score>
0.97753

$$$$
Compound 34
 OpenBabel11072204213D

 39 41  0  0  0  0  0  0  0  0999 V2000
    4.2546   -0.7211    1.0512 F   0  0  0  0  0  0  0  0  0  0  0  0
    3.8054   -0.0023   -0.0159 C   0  0  0  0  0  0  0  0  0  0  0  0
    2.6982    0.6596    0.4191 F   0  0  0  0  0  0  0  0  0  0  0  0
    4.7492    0.9529   -0.2430 F   0  0  0  0  0  0  0  0  0  0  0  0
    3.5369   -0.8443   -1.2395 C   0  0  0  0  0  0  0  0  0  0  0  0
    3.7263   -2.2309   -1.2117 C   0  0  0  0  0  0  0  0  0  0  0  0
    3.1308   -0.2435   -2.4409 C   0  0  0  0  0  0  0  0  0  0  0  0
    3.5511   -2.9931   -2.3685 C   0  0  0  0  0  0  0  0  0  0  0  0
    2.9593   -1.0108   -3.5992 C   0  0  0  0  0  0  0  0  0  0  0  0
    3.1605   -2.3945   -3.5747 C   0  0  0  0  0  0  0  0  0  0  0  0
    3.1210   -3.1188   -4.8011 N   0  0  0  0  0  0  0  0  0  0  0  0
    2.8753   -4.4978   -4.8142 C   0  0  0  0  0  0  0  0  0  0  0  0
    3.8819   -5.3551   -5.3021 N   0  0  0  0  0  0  0  0  0  0  0  0
    1.7374   -5.0522   -4.3587 C   0  0  0  0  0  0  0  0  0  0  0  0
    5.1100   -5.0356   -5.7936 N   0  0  0  0  0  0  0  0  0  0  0  0
    3.7264   -6.7424   -5.2804 C   0  0  0  0  0  0  0  0  0  0  0  0
    1.6622   -6.5427   -4.3684 C   0  0  0  0  0  0  0  0  0  0  0  0
    5.6542   -6.2448   -6.0281 C   0  0  0  0  0  0  0  0  0  0  0  0
    2.5951   -7.3359   -4.8079 N   0  0  0  0  0  0  0  0  0  0  0  0
    4.8233   -7.3038   -5.7364 N   0  0  0  0  0  0  0  0  0  0  0  0
    0.4146   -7.1667   -3.7962 C   0  0  0  0  0  0  0  0  0  0  0  0
    7.0605   -6.4454   -6.5592 C   0  0  0  0  0  0  0  0  0  0  0  0
    7.1941   -5.8809   -7.8008 F   0  0  0  0  0  0  0  0  0  0  0  0
    7.9728   -5.8122   -5.7616 F   0  0  0  0  0  0  0  0  0  0  0  0
    7.4476   -7.9458   -6.6743 C   0  0  0  0  0  0  0  0  0  0  0  0
    8.8011   -8.2448   -7.2090 N   0  0  0  0  0  0  0  0  0  0  0  0
    4.0445   -2.7267   -0.2953 H   0  0  0  0  0  0  0  0  0  0  0  0
    2.9705    0.8332   -2.4856 H   0  0  0  0  0  0  0  0  0  0  0  0
    3.7582   -4.0588   -2.3138 H   0  0  0  0  0  0  0  0  0  0  0  0
    2.6687   -0.5198   -4.5259 H   0  0  0  0  0  0  0  0  0  0  0  0
    4.0091   -2.9306   -5.2878 H   0  0  0  0  0  0  0  0  0  0  0  0
    0.9131   -4.4694   -3.9691 H   0  0  0  0  0  0  0  0  0  0  0  0
   -0.3112   -6.4078   -3.4938 H   0  0  0  0  0  0  0  0  0  0  0  0
    0.6840   -7.7646   -2.9203 H   0  0  0  0  0  0  0  0  0  0  0  0
   -0.0429   -7.8164   -4.5472 H   0  0  0  0  0  0  0  0  0  0  0  0
    6.7283   -8.4498   -7.3328 H   0  0  0  0  0  0  0  0  0  0  0  0
    7.3820   -8.4180   -5.6867 H   0  0  0  0  0  0  0  0  0  0  0  0
    8.9153   -7.7643   -8.1033 H   0  0  0  0  0  0  0  0  0  0  0  0
    8.8743   -9.2432   -7.3999 H   0  0  0  0  0  0  0  0  0  0  0  0
  1  2  1  0  0  0  0
  2  3  1  0  0  0  0
  2  4  1  0  0  0  0
  2  5  1  0  0  0  0
  5  6  2  0  0  0  0
  5  7  1  0  0  0  0
  6  8  1  0  0  0  0
  6 27  1  0  0  0  0
  7  9  2  0  0  0  0
  7 28  1  0  0  0  0
  8 10  2  0  0  0  0
  8 29  1  0  0  0  0
  9 10  1  0  0  0  0
  9 30  1  0  0  0  0
 10 11  1  0  0  0  0
 11 12  1  0  0  0  0
 11 31  1  0  0  0  0
 12 13  1  0  0  0  0
 12 14  2  0  0  0  0
 13 15  1  0  0  0  0
 13 16  1  0  0  0  0
 14 17  1  0  0  0  0
 14 32  1  0  0  0  0
 15 18  2  0  0  0  0
 16 19  1  0  0  0  0
 16 20  2  0  0  0  0
 17 21  1  0  0  0  0
 17 19  2  0  0  0  0
 18 22  1  0  0  0  0
 18 20  1  0  0  0  0
 21 33  1  0  0  0  0
 21 34  1  0  0  0  0
 21 35  1  0  0  0  0
 22 23  1  0  0  0  0
 22 24  1  0  0  0  0
 22 25  1  0  0  0  0
 25 26  1  0  0  0  0
 25 36  1  0  0  0  0
 25 37  1  0  0  0  0
 26 38  1  0  0  0  0
 26 39  1  0  0  0  0
M  END
>  <ID>
314

>  <Parent ID>
241

>  <Generation>
2

>  <Parent Generation>
1

>  <Child No>
1

>  <Fitness>
0.96629

>  <SkelSpheres sim score>
0.97791

>  <FragFp sim score>
0.9548

$$$$
Compound 35
 OpenBabel11072204213D

 41 43  0  0  0  0  0  0  0  0999 V2000
   -1.3671   -0.5037    1.2078 S   0  0  0  0  0  0  0  0  0  0  0  0
   -1.8800   -1.4702   -0.2757 C   0  0  0  0  0  0  0  0  0  0  0  0
   -2.2917   -1.4115    2.4700 C   0  0  0  0  0  0  0  0  0  0  0  0
   -1.2749   -0.9530   -1.5913 C   0  0  0  0  0  0  0  0  0  0  0  0
   -1.6468    0.3479   -1.7790 F   0  0  0  0  0  0  0  0  0  0  0  0
    0.0885   -0.9396   -1.4865 F   0  0  0  0  0  0  0  0  0  0  0  0
   -1.6859   -1.8182   -2.7681 C   0  0  0  0  0  0  0  0  0  0  0  0
   -2.3004   -1.3710   -3.8812 N   0  0  0  0  0  0  0  0  0  0  0  0
   -1.4178   -3.1659   -2.7705 N   0  0  0  0  0  0  0  0  0  0  0  0
   -2.3344   -2.4855   -4.6687 N   0  0  0  0  0  0  0  0  0  0  0  0
   -1.8022   -3.5721   -3.9568 C   0  0  0  0  0  0  0  0  0  0  0  0
   -2.7802   -2.6363   -6.0043 C   0  0  0  0  0  0  0  0  0  0  0  0
   -1.7480   -4.8316   -4.4778 N   0  0  0  0  0  0  0  0  0  0  0  0
   -3.3576   -1.5502   -6.6669 N   0  0  0  0  0  0  0  0  0  0  0  0
   -2.5700   -3.8363   -6.5817 C   0  0  0  0  0  0  0  0  0  0  0  0
   -2.1137   -4.9531   -5.7160 C   0  0  0  0  0  0  0  0  0  0  0  0
   -4.1884   -1.6310   -7.8050 C   0  0  0  0  0  0  0  0  0  0  0  0
   -2.1648   -6.3215   -6.3422 C   0  0  0  0  0  0  0  0  0  0  0  0
   -5.0306   -2.7356   -8.0170 C   0  0  0  0  0  0  0  0  0  0  0  0
   -4.0652   -0.6988   -8.8395 C   0  0  0  0  0  0  0  0  0  0  0  0
   -5.6298   -2.9766   -9.2532 C   0  0  0  0  0  0  0  0  0  0  0  0
   -4.6784   -0.9264  -10.0825 C   0  0  0  0  0  0  0  0  0  0  0  0
   -5.4260   -2.0932  -10.3157 C   0  0  0  0  0  0  0  0  0  0  0  0
   -5.9576   -2.4131  -11.6911 C   0  0  0  0  0  0  0  0  0  0  0  0
   -6.5689   -3.6286  -11.7702 F   0  0  0  0  0  0  0  0  0  0  0  0
   -6.8671   -1.5052  -12.1341 F   0  0  0  0  0  0  0  0  0  0  0  0
   -4.9681   -2.4425  -12.6327 F   0  0  0  0  0  0  0  0  0  0  0  0
   -2.9730   -1.4288   -0.3325 H   0  0  0  0  0  0  0  0  0  0  0  0
   -1.5769   -2.5087   -0.1028 H   0  0  0  0  0  0  0  0  0  0  0  0
   -2.0889   -0.9700    3.4500 H   0  0  0  0  0  0  0  0  0  0  0  0
   -1.9851   -2.4605    2.4939 H   0  0  0  0  0  0  0  0  0  0  0  0
   -3.3652   -1.3441    2.2765 H   0  0  0  0  0  0  0  0  0  0  0  0
   -3.2080   -0.6338   -6.2489 H   0  0  0  0  0  0  0  0  0  0  0  0
   -2.7736   -4.0491   -7.6224 H   0  0  0  0  0  0  0  0  0  0  0  0
   -1.7671   -7.0761   -5.6597 H   0  0  0  0  0  0  0  0  0  0  0  0
   -1.5856   -6.3293   -7.2698 H   0  0  0  0  0  0  0  0  0  0  0  0
   -3.2075   -6.5650   -6.5721 H   0  0  0  0  0  0  0  0  0  0  0  0
   -5.2003   -3.4541   -7.2177 H   0  0  0  0  0  0  0  0  0  0  0  0
   -3.4371    0.1804   -8.7161 H   0  0  0  0  0  0  0  0  0  0  0  0
   -6.2206   -3.8815   -9.3886 H   0  0  0  0  0  0  0  0  0  0  0  0
   -4.5291   -0.2094  -10.8895 H   0  0  0  0  0  0  0  0  0  0  0  0
  1  2  1  0  0  0  0
  1  3  1  0  0  0  0
  2  4  1  0  0  0  0
  2 28  1  0  0  0  0
  2 29  1  0  0  0  0
  3 30  1  0  0  0  0
  3 31  1  0  0  0  0
  3 32  1  0  0  0  0
  4  5  1  0  0  0  0
  4  6  1  0  0  0  0
  4  7  1  0  0  0  0
  7  8  2  0  0  0  0
  7  9  1  0  0  0  0
  8 10  1  0  0  0  0
  9 11  2  0  0  0  0
 10 12  1  0  0  0  0
 10 11  1  0  0  0  0
 11 13  1  0  0  0  0
 12 14  1  0  0  0  0
 12 15  2  0  0  0  0
 13 16  2  0  0  0  0
 14 17  1  0  0  0  0
 14 33  1  0  0  0  0
 15 16  1  0  0  0  0
 15 34  1  0  0  0  0
 16 18  1  0  0  0  0
 17 19  2  0  0  0  0
 17 20  1  0  0  0  0
 18 35  1  0  0  0  0
 18 36  1  0  0  0  0
 18 37  1  0  0  0  0
 19 21  1  0  0  0  0
 19 38  1  0  0  0  0
 20 22  2  0  0  0  0
 20 39  1  0  0  0  0
 21 23  2  0  0  0  0
 21 40  1  0  0  0  0
 22 23  1  0  0  0  0
 22 41  1  0  0  0  0
 23 24  1  0  0  0  0
 24 25  1  0  0  0  0
 24 26  1  0  0  0  0
 24 27  1  0  0  0  0
M  END
>  <ID>
330

>  <Parent ID>
1

>  <Generation>
1

>  <Parent Generation>
0

>  <Child No>
4

>  <Fitness>
0.94895

>  <SkelSpheres sim score>
0.94314

>  <FragFp sim score>
0.9548

$$$$
Compound 36
 OpenBabel11072204213D

 38 40  0  0  0  0  0  0  0  0999 V2000
    1.2657    4.9869   -8.1955 F   0  0  0  0  0  0  0  0  0  0  0  0
    1.5185    4.8086   -6.8676 C   0  0  0  0  0  0  0  0  0  0  0  0
    2.1841    5.9211   -6.4585 F   0  0  0  0  0  0  0  0  0  0  0  0
    0.3012    4.8528   -6.2547 F   0  0  0  0  0  0  0  0  0  0  0  0
    2.2557    3.5278   -6.5597 C   0  0  0  0  0  0  0  0  0  0  0  0
    2.5825    2.6237   -7.5721 C   0  0  0  0  0  0  0  0  0  0  0  0
    2.5753    3.1852   -5.2394 C   0  0  0  0  0  0  0  0  0  0  0  0
    3.1001    1.3608   -7.2576 C   0  0  0  0  0  0  0  0  0  0  0  0
    3.0957    1.9174   -4.9339 C   0  0  0  0  0  0  0  0  0  0  0  0
    3.2802    0.9478   -5.9306 C   0  0  0  0  0  0  0  0  0  0  0  0
    3.6622   -0.3606   -5.5552 N   0  0  0  0  0  0  0  0  0  0  0  0
    3.8140   -1.4509   -6.4083 C   0  0  0  0  0  0  0  0  0  0  0  0
    4.2060   -1.3662   -7.6496 N   0  0  0  0  0  0  0  0  0  0  0  0
    3.5321   -2.7318   -5.9231 N   0  0  0  0  0  0  0  0  0  0  0  0
    4.3124   -2.4932   -8.4187 C   0  0  0  0  0  0  0  0  0  0  0  0
    3.1119   -3.0539   -4.6719 N   0  0  0  0  0  0  0  0  0  0  0  0
    3.6315   -3.8250   -6.7345 C   0  0  0  0  0  0  0  0  0  0  0  0
    4.0219   -3.6954   -8.0205 N   0  0  0  0  0  0  0  0  0  0  0  0
    4.7232   -2.3003   -9.6941 N   0  0  0  0  0  0  0  0  0  0  0  0
    3.0278   -4.4063   -4.7779 C   0  0  0  0  0  0  0  0  0  0  0  0
    3.3035   -4.8896   -6.0435 N   0  0  0  0  0  0  0  0  0  0  0  0
    2.7257   -5.3679   -3.6436 C   0  0  0  0  0  0  0  0  0  0  0  0
    3.5568   -6.4548   -3.6998 F   0  0  0  0  0  0  0  0  0  0  0  0
    2.9899   -4.7890   -2.4309 F   0  0  0  0  0  0  0  0  0  0  0  0
    1.2867   -5.8825   -3.5975 C   0  0  0  0  0  0  0  0  0  0  0  0
    0.8516   -6.6816   -4.8188 C   0  0  0  0  0  0  0  0  0  0  0  0
    2.4010    2.8737   -8.6170 H   0  0  0  0  0  0  0  0  0  0  0  0
    2.3843    3.8932   -4.4336 H   0  0  0  0  0  0  0  0  0  0  0  0
    3.3059    0.7005   -8.0931 H   0  0  0  0  0  0  0  0  0  0  0  0
    3.3177    1.6874   -3.8938 H   0  0  0  0  0  0  0  0  0  0  0  0
    3.3998   -0.6027   -4.6006 H   0  0  0  0  0  0  0  0  0  0  0  0
    4.5343   -1.3743  -10.0464 H   0  0  0  0  0  0  0  0  0  0  0  0
    4.4687   -3.0529  -10.3201 H   0  0  0  0  0  0  0  0  0  0  0  0
    0.5935   -5.0499   -3.4363 H   0  0  0  0  0  0  0  0  0  0  0  0
    1.1906   -6.5378   -2.7213 H   0  0  0  0  0  0  0  0  0  0  0  0
    0.8394   -6.0641   -5.7211 H   0  0  0  0  0  0  0  0  0  0  0  0
   -0.1636   -7.0666   -4.6711 H   0  0  0  0  0  0  0  0  0  0  0  0
    1.5107   -7.5386   -4.9907 H   0  0  0  0  0  0  0  0  0  0  0  0
  1  2  1  0  0  0  0
  2  3  1  0  0  0  0
  2  4  1  0  0  0  0
  2  5  1  0  0  0  0
  5  6  2  0  0  0  0
  5  7  1  0  0  0  0
  6  8  1  0  0  0  0
  6 27  1  0  0  0  0
  7  9  2  0  0  0  0
  7 28  1  0  0  0  0
  8 10  2  0  0  0  0
  8 29  1  0  0  0  0
  9 10  1  0  0  0  0
  9 30  1  0  0  0  0
 10 11  1  0  0  0  0
 11 12  1  0  0  0  0
 11 31  1  0  0  0  0
 12 13  2  0  0  0  0
 12 14  1  0  0  0  0
 13 15  1  0  0  0  0
 14 16  1  0  0  0  0
 14 17  1  0  0  0  0
 15 18  2  0  0  0  0
 15 19  1  0  0  0  0
 16 20  2  0  0  0  0
 17 21  2  0  0  0  0
 17 18  1  0  0  0  0
 19 32  1  0  0  0  0
 19 33  1  0  0  0  0
 20 22  1  0  0  0  0
 20 21  1  0  0  0  0
 22 23  1  0  0  0  0
 22 24  1  0  0  0  0
 22 25  1  0  0  0  0
 25 26  1  0  0  0  0
 25 34  1  0  0  0  0
 25 35  1  0  0  0  0
 26 36  1  0  0  0  0
 26 37  1  0  0  0  0
 26 38  1  0  0  0  0
M  END
>  <ID>
338

>  <Parent ID>
110

>  <Generation>
4

>  <Parent Generation>
3

>  <Child No>
3

>  <Fitness>
0.96178

>  <SkelSpheres sim score>
0.9464

>  <FragFp sim score>
0.9774

$$$$
Compound 37
 OpenBabel11072204213D

 36 38  0  0  0  0  0  0  0  0999 V2000
    1.0790   -0.7865   -0.1628 Cl  0  0  0  0  0  0  0  0  0  0  0  0
    2.7726   -0.4547   -0.1190 C   0  0  0  0  0  0  0  0  0  0  0  0
    3.5428   -1.4942   -0.0795 N   0  0  0  0  0  0  0  0  0  0  0  0
    3.2342    0.9579   -0.1287 C   0  0  0  0  0  0  0  0  0  0  0  0
    4.8779   -1.2444   -0.0459 C   0  0  0  0  0  0  0  0  0  0  0  0
    4.5604    1.1995   -0.0818 C   0  0  0  0  0  0  0  0  0  0  0  0
    5.8567   -2.1151   -0.0256 N   0  0  0  0  0  0  0  0  0  0  0  0
    5.4079    0.0554   -0.0440 N   0  0  0  0  0  0  0  0  0  0  0  0
    5.1672    2.4581   -0.0687 N   0  0  0  0  0  0  0  0  0  0  0  0
    6.9968   -1.3510   -0.0094 C   0  0  0  0  0  0  0  0  0  0  0  0
    6.7723   -0.0206   -0.0189 N   0  0  0  0  0  0  0  0  0  0  0  0
    4.5683    3.7346    0.0162 C   0  0  0  0  0  0  0  0  0  0  0  0
    8.3551   -2.0249   -0.0388 C   0  0  0  0  0  0  0  0  0  0  0  0
    3.2268    3.8854   -0.0590 N   0  0  0  0  0  0  0  0  0  0  0  0
    5.3844    4.8548    0.1671 C   0  0  0  0  0  0  0  0  0  0  0  0
    9.3824   -1.1237   -0.0466 F   0  0  0  0  0  0  0  0  0  0  0  0
    8.5397   -2.7686    1.0959 F   0  0  0  0  0  0  0  0  0  0  0  0
    8.5304   -2.9683   -1.2337 C   0  0  0  0  0  0  0  0  0  0  0  0
    2.6876    5.1282    0.0453 C   0  0  0  0  0  0  0  0  0  0  0  0
    4.8131    6.1275    0.2866 C   0  0  0  0  0  0  0  0  0  0  0  0
    8.4837   -2.2540   -2.5766 C   0  0  0  0  0  0  0  0  0  0  0  0
    3.4281    6.2793    0.2335 C   0  0  0  0  0  0  0  0  0  0  0  0
    2.7683    7.6153    0.3951 C   0  0  0  0  0  0  0  0  0  0  0  0
    1.4171    7.5845    0.2273 F   0  0  0  0  0  0  0  0  0  0  0  0
    2.9762    8.1480    1.6312 F   0  0  0  0  0  0  0  0  0  0  0  0
    3.2320    8.5401   -0.4901 F   0  0  0  0  0  0  0  0  0  0  0  0
    2.4678    1.7163   -0.1679 H   0  0  0  0  0  0  0  0  0  0  0  0
    6.1739    2.4314    0.0815 H   0  0  0  0  0  0  0  0  0  0  0  0
    6.4646    4.7538    0.2108 H   0  0  0  0  0  0  0  0  0  0  0  0
    7.7670   -3.7560   -1.2111 H   0  0  0  0  0  0  0  0  0  0  0  0
    9.4972   -3.4790   -1.1438 H   0  0  0  0  0  0  0  0  0  0  0  0
    1.6013    5.1559   -0.0272 H   0  0  0  0  0  0  0  0  0  0  0  0
    5.4538    6.9964    0.4279 H   0  0  0  0  0  0  0  0  0  0  0  0
    7.5153   -1.7717   -2.7404 H   0  0  0  0  0  0  0  0  0  0  0  0
    8.6405   -2.9688   -3.3909 H   0  0  0  0  0  0  0  0  0  0  0  0
    9.2655   -1.4910   -2.6401 H   0  0  0  0  0  0  0  0  0  0  0  0
  1  2  1  0  0  0  0
  2  3  2  0  0  0  0
  2  4  1  0  0  0  0
  3  5  1  0  0  0  0
  4  6  2  0  0  0  0
  4 27  1  0  0  0  0
  5  7  2  0  0  0  0
  5  8  1  0  0  0  0
  6  9  1  0  0  0  0
  6  8  1  0  0  0  0
  7 10  1  0  0  0  0
  8 11  1  0  0  0  0
  9 12  1  0  0  0  0
  9 28  1  0  0  0  0
 10 13  1  0  0  0  0
 10 11  2  0  0  0  0
 12 14  2  0  0  0  0
 12 15  1  0  0  0  0
 13 16  1  0  0  0  0
 13 17  1  0  0  0  0
 13 18  1  0  0  0  0
 14 19  1  0  0  0  0
 15 20  2  0  0  0  0
 15 29  1  0  0  0  0
 18 21  1  0  0  0  0
 18 30  1  0  0  0  0
 18 31  1  0  0  0  0
 19 22  2  0  0  0  0
 19 32  1  0  0  0  0
 20 22  1  0  0  0  0
 20 33  1  0  0  0  0
 21 34  1  0  0  0  0
 21 35  1  0  0  0  0
 21 36  1  0  0  0  0
 22 23  1  0  0  0  0
 23 24  1  0  0  0  0
 23 25  1  0  0  0  0
 23 26  1  0  0  0  0
M  END
>  <ID>
340

>  <Parent ID>
242

>  <Generation>
2

>  <Parent Generation>
1

>  <Child No>
6

>  <Fitness>
0.93354

>  <SkelSpheres sim score>
0.92368

>  <FragFp sim score>
0.9435

$$$$
Compound 38
 OpenBabel11072204213D

 44 46  0  0  0  0  0  0  0  0999 V2000
    7.7000   -0.2000   -0.5964 F   0  0  0  0  0  0  0  0  0  0  0  0
    7.0771    0.9142   -1.0753 C   0  0  0  0  0  0  0  0  0  0  0  0
    6.4972    1.5103    0.0001 F   0  0  0  0  0  0  0  0  0  0  0  0
    8.0758    1.7498   -1.4772 F   0  0  0  0  0  0  0  0  0  0  0  0
    6.0970    0.6240   -2.1853 C   0  0  0  0  0  0  0  0  0  0  0  0
    5.9250   -0.6760   -2.6654 C   0  0  0  0  0  0  0  0  0  0  0  0
    5.3685    1.6595   -2.7875 C   0  0  0  0  0  0  0  0  0  0  0  0
    5.1102   -0.9195   -3.7743 C   0  0  0  0  0  0  0  0  0  0  0  0
    4.5454    1.4074   -3.8942 C   0  0  0  0  0  0  0  0  0  0  0  0
    4.4542    0.1232   -4.4464 C   0  0  0  0  0  0  0  0  0  0  0  0
    3.6712   -0.0650   -5.6235 N   0  0  0  0  0  0  0  0  0  0  0  0
    3.6524   -1.2657   -6.3406 C   0  0  0  0  0  0  0  0  0  0  0  0
    4.0821   -1.2679   -7.6893 N   0  0  0  0  0  0  0  0  0  0  0  0
    3.2284   -2.4326   -5.8209 C   0  0  0  0  0  0  0  0  0  0  0  0
    4.4485   -0.2210   -8.4842 N   0  0  0  0  0  0  0  0  0  0  0  0
    4.1507   -2.4598   -8.4187 C   0  0  0  0  0  0  0  0  0  0  0  0
    3.4581   -3.6589   -6.6353 C   0  0  0  0  0  0  0  0  0  0  0  0
    4.6965   -0.8249   -9.6641 C   0  0  0  0  0  0  0  0  0  0  0  0
    3.8744   -3.6716   -7.8637 N   0  0  0  0  0  0  0  0  0  0  0  0
    4.5416   -2.1918   -9.6436 N   0  0  0  0  0  0  0  0  0  0  0  0
    3.2330   -4.9803   -5.9472 C   0  0  0  0  0  0  0  0  0  0  0  0
    5.0909   -0.1021  -10.9413 C   0  0  0  0  0  0  0  0  0  0  0  0
    4.5847    1.1672  -10.9643 F   0  0  0  0  0  0  0  0  0  0  0  0
    6.4479    0.0380  -11.0171 F   0  0  0  0  0  0  0  0  0  0  0  0
    4.6054   -0.8357  -12.1964 C   0  0  0  0  0  0  0  0  0  0  0  0
    4.9706   -0.0873  -13.4810 C   0  0  0  0  0  0  0  0  0  0  0  0
    4.4686   -0.8157  -14.6976 C   0  0  0  0  0  0  0  0  0  0  0  0
    3.5969   -0.3044  -15.5770 C   0  0  0  0  0  0  0  0  0  0  0  0
    6.4494   -1.5113   -2.2027 H   0  0  0  0  0  0  0  0  0  0  0  0
    5.4589    2.6778   -2.4121 H   0  0  0  0  0  0  0  0  0  0  0  0
    5.0545   -1.9465   -4.1160 H   0  0  0  0  0  0  0  0  0  0  0  0
    3.9998    2.2354   -4.3416 H   0  0  0  0  0  0  0  0  0  0  0  0
    3.8092    0.7340   -6.2531 H   0  0  0  0  0  0  0  0  0  0  0  0
    2.8175   -2.5192   -4.8234 H   0  0  0  0  0  0  0  0  0  0  0  0
    3.0178   -4.8453   -4.8832 H   0  0  0  0  0  0  0  0  0  0  0  0
    4.1384   -5.5884   -6.0397 H   0  0  0  0  0  0  0  0  0  0  0  0
    2.3977   -5.5011   -6.4217 H   0  0  0  0  0  0  0  0  0  0  0  0
    3.5161   -0.9621  -12.1472 H   0  0  0  0  0  0  0  0  0  0  0  0
    5.0500   -1.8391  -12.2335 H   0  0  0  0  0  0  0  0  0  0  0  0
    6.0585    0.0087  -13.5603 H   0  0  0  0  0  0  0  0  0  0  0  0
    4.5589    0.9290  -13.4477 H   0  0  0  0  0  0  0  0  0  0  0  0
    4.8605   -1.8162  -14.8661 H   0  0  0  0  0  0  0  0  0  0  0  0
    3.1821    0.6925  -15.4614 H   0  0  0  0  0  0  0  0  0  0  0  0
    3.2792   -0.8808  -16.4407 H   0  0  0  0  0  0  0  0  0  0  0  0
  1  2  1  0  0  0  0
  2  3  1  0  0  0  0
  2  4  1  0  0  0  0
  2  5  1  0  0  0  0
  5  6  2  0  0  0  0
  5  7  1  0  0  0  0
  6  8  1  0  0  0  0
  6 29  1  0  0  0  0
  7  9  2  0  0  0  0
  7 30  1  0  0  0  0
  8 10  2  0  0  0  0
  8 31  1  0  0  0  0
  9 10  1  0  0  0  0
  9 32  1  0  0  0  0
 10 11  1  0  0  0  0
 11 12  1  0  0  0  0
 11 33  1  0  0  0  0
 12 13  1  0  0  0  0
 12 14  2  0  0  0  0
 13 15  1  0  0  0  0
 13 16  1  0  0  0  0
 14 17  1  0  0  0  0
 14 34  1  0  0  0  0
 15 18  2  0  0  0  0
 16 19  1  0  0  0  0
 16 20  2  0  0  0  0
 17 21  1  0  0  0  0
 17 19  2  0  0  0  0
 18 22  1  0  0  0  0
 18 20  1  0  0  0  0
 21 35  1  0  0  0  0
 21 36  1  0  0  0  0
 21 37  1  0  0  0  0
 22 23  1  0  0  0  0
 22 24  1  0  0  0  0
 22 25  1  0  0  0  0
 25 26  1  0  0  0  0
 25 38  1  0  0  0  0
 25 39  1  0  0  0  0
 26 27  1  0  0  0  0
 26 40  1  0  0  0  0
 26 41  1  0  0  0  0
 27 28  2  0  0  0  0
 27 42  1  0  0  0  0
 28 43  1  0  0  0  0
 28 44  1  0  0  0  0
M  END
>  <ID>
348

>  <Parent ID>
3

>  <Generation>
2

>  <Parent Generation>
1

>  <Child No>
2

>  <Fitness>
0.96283

>  <SkelSpheres sim score>
0.94302

>  <FragFp sim score>
0.98305

$$$$
Compound 39
 OpenBabel11072204213D

 43 45  0  0  0  0  0  0  0  0999 V2000
    7.5614   -0.2617   -0.4840 F   0  0  0  0  0  0  0  0  0  0  0  0
    6.9898    0.8740   -0.9765 C   0  0  0  0  0  0  0  0  0  0  0  0
    6.3983    1.4849    0.0852 F   0  0  0  0  0  0  0  0  0  0  0  0
    8.0257    1.6775   -1.3457 F   0  0  0  0  0  0  0  0  0  0  0  0
    6.0325    0.6184   -2.1146 C   0  0  0  0  0  0  0  0  0  0  0  0
    5.8304   -0.6761   -2.5961 C   0  0  0  0  0  0  0  0  0  0  0  0
    5.3574    1.6760   -2.7413 C   0  0  0  0  0  0  0  0  0  0  0  0
    5.0370   -0.8959   -3.7243 C   0  0  0  0  0  0  0  0  0  0  0  0
    4.5536    1.4468   -3.8688 C   0  0  0  0  0  0  0  0  0  0  0  0
    4.4304    0.1633   -4.4164 C   0  0  0  0  0  0  0  0  0  0  0  0
    3.6648   -0.0126   -5.6084 N   0  0  0  0  0  0  0  0  0  0  0  0
    3.6405   -1.2209   -6.3153 C   0  0  0  0  0  0  0  0  0  0  0  0
    4.1142   -1.2446   -7.6467 N   0  0  0  0  0  0  0  0  0  0  0  0
    3.1761   -2.3734   -5.7999 C   0  0  0  0  0  0  0  0  0  0  0  0
    4.4866   -0.2082   -8.4526 N   0  0  0  0  0  0  0  0  0  0  0  0
    4.2188   -2.4473   -8.3539 C   0  0  0  0  0  0  0  0  0  0  0  0
    3.4274   -3.6153   -6.5834 C   0  0  0  0  0  0  0  0  0  0  0  0
    4.7662   -0.8304   -9.6141 C   0  0  0  0  0  0  0  0  0  0  0  0
    3.9183   -3.6522   -7.7900 N   0  0  0  0  0  0  0  0  0  0  0  0
    4.6335   -2.1973   -9.5733 N   0  0  0  0  0  0  0  0  0  0  0  0
    3.1635   -4.9255   -5.8713 C   0  0  0  0  0  0  0  0  0  0  0  0
    5.1094   -0.1201  -10.9075 C   0  0  0  0  0  0  0  0  0  0  0  0
    4.3711   -5.3278   -5.0398 C   0  0  0  0  0  0  0  0  0  0  0  0
    4.5977    1.1469  -10.9330 F   0  0  0  0  0  0  0  0  0  0  0  0
    6.4617    0.0318  -11.0269 F   0  0  0  0  0  0  0  0  0  0  0  0
    4.6132   -0.8424  -12.1545 C   0  0  0  0  0  0  0  0  0  0  0  0
    3.1056   -0.9766  -12.1720 C   0  0  0  0  0  0  0  0  0  0  0  0
    2.7427   -1.5830  -13.3355 F   0  0  0  0  0  0  0  0  0  0  0  0
    6.3127   -1.5275   -2.1175 H   0  0  0  0  0  0  0  0  0  0  0  0
    5.4737    2.6924   -2.3663 H   0  0  0  0  0  0  0  0  0  0  0  0
    4.9579   -1.9223   -4.0624 H   0  0  0  0  0  0  0  0  0  0  0  0
    4.0493    2.2924   -4.3321 H   0  0  0  0  0  0  0  0  0  0  0  0
    3.8414    0.7768   -6.2396 H   0  0  0  0  0  0  0  0  0  0  0  0
    2.7372   -2.4462   -4.8132 H   0  0  0  0  0  0  0  0  0  0  0  0
    2.9386   -5.6996   -6.6122 H   0  0  0  0  0  0  0  0  0  0  0  0
    2.2850   -4.8152   -5.2267 H   0  0  0  0  0  0  0  0  0  0  0  0
    5.2583   -5.4591   -5.6685 H   0  0  0  0  0  0  0  0  0  0  0  0
    4.1773   -6.2695   -4.5179 H   0  0  0  0  0  0  0  0  0  0  0  0
    4.6102   -4.5670   -4.2888 H   0  0  0  0  0  0  0  0  0  0  0  0
    5.0787   -1.8308  -12.2488 H   0  0  0  0  0  0  0  0  0  0  0  0
    4.9262   -0.2859  -13.0466 H   0  0  0  0  0  0  0  0  0  0  0  0
    2.6107   -0.0016  -12.1382 H   0  0  0  0  0  0  0  0  0  0  0  0
    2.7254   -1.5923  -11.3528 H   0  0  0  0  0  0  0  0  0  0  0  0
  1  2  1  0  0  0  0
  2  3  1  0  0  0  0
  2  4  1  0  0  0  0
  2  5  1  0  0  0  0
  5  6  2  0  0  0  0
  5  7  1  0  0  0  0
  6  8  1  0  0  0  0
  6 29  1  0  0  0  0
  7  9  2  0  0  0  0
  7 30  1  0  0  0  0
  8 10  2  0  0  0  0
  8 31  1  0  0  0  0
  9 10  1  0  0  0  0
  9 32  1  0  0  0  0
 10 11  1  0  0  0  0
 11 12  1  0  0  0  0
 11 33  1  0  0  0  0
 12 13  1  0  0  0  0
 12 14  2  0  0  0  0
 13 15  1  0  0  0  0
 13 16  1  0  0  0  0
 14 17  1  0  0  0  0
 14 34  1  0  0  0  0
 15 18  2  0  0  0  0
 16 19  1  0  0  0  0
 16 20  2  0  0  0  0
 17 21  1  0  0  0  0
 17 19  2  0  0  0  0
 18 22  1  0  0  0  0
 18 20  1  0  0  0  0
 21 23  1  0  0  0  0
 21 35  1  0  0  0  0
 21 36  1  0  0  0  0
 22 24  1  0  0  0  0
 22 25  1  0  0  0  0
 22 26  1  0  0  0  0
 23 37  1  0  0  0  0
 23 38  1  0  0  0  0
 23 39  1  0  0  0  0
 26 27  1  0  0  0  0
 26 40  1  0  0  0  0
 26 41  1  0  0  0  0
 27 28  1  0  0  0  0
 27 42  1  0  0  0  0
 27 43  1  0  0  0  0
M  END
>  <ID>
370

>  <Parent ID>
254

>  <Generation>
3

>  <Parent Generation>
2

>  <Child No>
5

>  <Fitness>
0.93412

>  <SkelSpheres sim score>
0.89765

>  <FragFp sim score>
0.97207

$$$$
Compound 40
 OpenBabel11072204213D

 42 44  0  0  0  0  0  0  0  0999 V2000
    7.5061    0.7437   -0.7018 F   0  0  0  0  0  0  0  0  0  0  0  0
    6.7404    1.8473   -0.4694 C   0  0  0  0  0  0  0  0  0  0  0  0
    6.1983    1.6730    0.7661 F   0  0  0  0  0  0  0  0  0  0  0  0
    7.6155    2.8850   -0.3545 F   0  0  0  0  0  0  0  0  0  0  0  0
    5.7031    2.0937   -1.5369 C   0  0  0  0  0  0  0  0  0  0  0  0
    5.6005    1.2449   -2.6412 C   0  0  0  0  0  0  0  0  0  0  0  0
    4.8508    3.2049   -1.4672 C   0  0  0  0  0  0  0  0  0  0  0  0
    4.7314    1.5504   -3.6917 C   0  0  0  0  0  0  0  0  0  0  0  0
    3.9754    3.5021   -2.5214 C   0  0  0  0  0  0  0  0  0  0  0  0
    3.9512    2.7164   -3.6808 C   0  0  0  0  0  0  0  0  0  0  0  0
    3.1109    3.1126   -4.7636 N   0  0  0  0  0  0  0  0  0  0  0  0
    3.1632    2.4995   -6.0205 C   0  0  0  0  0  0  0  0  0  0  0  0
    3.5715    3.2633   -7.1363 N   0  0  0  0  0  0  0  0  0  0  0  0
    2.8377    1.2102   -6.2305 C   0  0  0  0  0  0  0  0  0  0  0  0
    3.8766    4.5952   -7.2086 N   0  0  0  0  0  0  0  0  0  0  0  0
    3.7099    2.6789   -8.3983 C   0  0  0  0  0  0  0  0  0  0  0  0
    3.1303    0.6509   -7.5806 C   0  0  0  0  0  0  0  0  0  0  0  0
    4.1359    4.7552   -8.5234 C   0  0  0  0  0  0  0  0  0  0  0  0
    3.5257    1.3442   -8.6048 N   0  0  0  0  0  0  0  0  0  0  0  0
    4.0685    3.5988   -9.2633 N   0  0  0  0  0  0  0  0  0  0  0  0
    3.0096   -0.8438   -7.7359 C   0  0  0  0  0  0  0  0  0  0  0  0
    4.4890    6.0762   -9.1727 C   0  0  0  0  0  0  0  0  0  0  0  0
    4.0206    6.1288  -10.4583 F   0  0  0  0  0  0  0  0  0  0  0  0
    3.8656    7.1151   -8.5331 F   0  0  0  0  0  0  0  0  0  0  0  0
    5.9825    6.3853   -9.2052 C   0  0  0  0  0  0  0  0  0  0  0  0
    6.7805    5.3659  -10.0060 C   0  0  0  0  0  0  0  0  0  0  0  0
    8.1971    5.7360  -10.0291 N   0  0  0  0  0  0  0  0  0  0  0  0
    6.2221    0.3532   -2.7141 H   0  0  0  0  0  0  0  0  0  0  0  0
    4.8852    3.8637   -0.6004 H   0  0  0  0  0  0  0  0  0  0  0  0
    4.7306    0.8691   -4.5346 H   0  0  0  0  0  0  0  0  0  0  0  0
    3.3346    4.3780   -2.4392 H   0  0  0  0  0  0  0  0  0  0  0  0
    3.1557    4.1333   -4.8586 H   0  0  0  0  0  0  0  0  0  0  0  0
    2.4707    0.5591   -5.4470 H   0  0  0  0  0  0  0  0  0  0  0  0
    2.7823   -1.3285   -6.7825 H   0  0  0  0  0  0  0  0  0  0  0  0
    3.9597   -1.2417   -8.1056 H   0  0  0  0  0  0  0  0  0  0  0  0
    2.2185   -1.0727   -8.4541 H   0  0  0  0  0  0  0  0  0  0  0  0
    6.3690    6.4580   -8.1813 H   0  0  0  0  0  0  0  0  0  0  0  0
    6.1138    7.3777   -9.6576 H   0  0  0  0  0  0  0  0  0  0  0  0
    6.4112    5.2974  -11.0346 H   0  0  0  0  0  0  0  0  0  0  0  0
    6.7025    4.3688   -9.5546 H   0  0  0  0  0  0  0  0  0  0  0  0
    8.3178    6.6126  -10.5369 H   0  0  0  0  0  0  0  0  0  0  0  0
    8.7181    5.0361  -10.5575 H   0  0  0  0  0  0  0  0  0  0  0  0
  1  2  1  0  0  0  0
  2  3  1  0  0  0  0
  2  4  1  0  0  0  0
  2  5  1  0  0  0  0
  5  6  2  0  0  0  0
  5  7  1  0  0  0  0
  6  8  1  0  0  0  0
  6 28  1  0  0  0  0
  7  9  2  0  0  0  0
  7 29  1  0  0  0  0
  8 10  2  0  0  0  0
  8 30  1  0  0  0  0
  9 10  1  0  0  0  0
  9 31  1  0  0  0  0
 10 11  1  0  0  0  0
 11 12  1  0  0  0  0
 11 32  1  0  0  0  0
 12 13  1  0  0  0  0
 12 14  2  0  0  0  0
 13 15  1  0  0  0  0
 13 16  1  0  0  0  0
 14 17  1  0  0  0  0
 14 33  1  0  0  0  0
 15 18  2  0  0  0  0
 16 19  1  0  0  0  0
 16 20  2  0  0  0  0
 17 21  1  0  0  0  0
 17 19  2  0  0  0  0
 18 22  1  0  0  0  0
 18 20  1  0  0  0  0
 21 34  1  0  0  0  0
 21 35  1  0  0  0  0
 21 36  1  0  0  0  0
 22 23  1  0  0  0  0
 22 24  1  0  0  0  0
 22 25  1  0  0  0  0
 25 26  1  0  0  0  0
 25 37  1  0  0  0  0
 25 38  1  0  0  0  0
 26 27  1  0  0  0  0
 26 39  1  0  0  0  0
 26 40  1  0  0  0  0
 27 41  1  0  0  0  0
 27 42  1  0  0  0  0
M  END
>  <ID>
379

>  <Parent ID>
314

>  <Generation>
3

>  <Parent Generation>
2

>  <Child No>
3

>  <Fitness>
0.95975

>  <SkelSpheres sim score>
0.95818

>  <FragFp sim score>
0.96133

$$$$
Compound 41
 OpenBabel11072204213D

 38 40  0  0  0  0  0  0  0  0999 V2000
    7.4948    0.7498   -0.6701 F   0  0  0  0  0  0  0  0  0  0  0  0
    6.7335    1.8572   -0.4492 C   0  0  0  0  0  0  0  0  0  0  0  0
    6.1811    1.6924    0.7838 F   0  0  0  0  0  0  0  0  0  0  0  0
    7.6128    2.8923   -0.3308 F   0  0  0  0  0  0  0  0  0  0  0  0
    5.7051    2.1063   -1.5237 C   0  0  0  0  0  0  0  0  0  0  0  0
    5.6028    1.2506   -2.6233 C   0  0  0  0  0  0  0  0  0  0  0  0
    4.8583    3.2220   -1.4647 C   0  0  0  0  0  0  0  0  0  0  0  0
    4.7384    1.5534   -3.6781 C   0  0  0  0  0  0  0  0  0  0  0  0
    3.9877    3.5167   -2.5232 C   0  0  0  0  0  0  0  0  0  0  0  0
    3.9635    2.7226   -3.6776 C   0  0  0  0  0  0  0  0  0  0  0  0
    3.1277    3.1149   -4.7660 N   0  0  0  0  0  0  0  0  0  0  0  0
    3.1786    2.4959   -6.0185 C   0  0  0  0  0  0  0  0  0  0  0  0
    3.5760    3.2576   -7.1367 N   0  0  0  0  0  0  0  0  0  0  0  0
    2.8575    1.2046   -6.2242 C   0  0  0  0  0  0  0  0  0  0  0  0
    3.8713    4.5884   -7.2196 N   0  0  0  0  0  0  0  0  0  0  0  0
    3.7214    2.6702   -8.4000 C   0  0  0  0  0  0  0  0  0  0  0  0
    3.1411    0.6439   -7.5764 C   0  0  0  0  0  0  0  0  0  0  0  0
    4.1597    4.7434   -8.5275 C   0  0  0  0  0  0  0  0  0  0  0  0
    3.5304    1.3346   -8.6032 N   0  0  0  0  0  0  0  0  0  0  0  0
    4.0824    3.5874   -9.2664 N   0  0  0  0  0  0  0  0  0  0  0  0
    3.0104   -0.8505   -7.7306 C   0  0  0  0  0  0  0  0  0  0  0  0
    4.4930    6.0707   -9.1739 C   0  0  0  0  0  0  0  0  0  0  0  0
    3.3486    6.7157   -9.5679 F   0  0  0  0  0  0  0  0  0  0  0  0
    5.1056    6.9206   -8.2964 F   0  0  0  0  0  0  0  0  0  0  0  0
    5.3866    5.9201  -10.4186 C   0  0  0  0  0  0  0  0  0  0  0  0
    5.6568    7.1733  -11.0746 O   0  0  0  0  0  0  0  0  0  0  0  0
    6.2199    0.3555   -2.6877 H   0  0  0  0  0  0  0  0  0  0  0  0
    4.8920    3.8859   -0.6015 H   0  0  0  0  0  0  0  0  0  0  0  0
    4.7377    0.8667   -4.5166 H   0  0  0  0  0  0  0  0  0  0  0  0
    3.3517    4.3965   -2.4496 H   0  0  0  0  0  0  0  0  0  0  0  0
    3.1741    4.1361   -4.8650 H   0  0  0  0  0  0  0  0  0  0  0  0
    2.4954    0.5560   -5.4379 H   0  0  0  0  0  0  0  0  0  0  0  0
    2.7861   -1.3342   -6.7762 H   0  0  0  0  0  0  0  0  0  0  0  0
    3.9554   -1.2533   -8.1074 H   0  0  0  0  0  0  0  0  0  0  0  0
    2.2119   -1.0754   -8.4448 H   0  0  0  0  0  0  0  0  0  0  0  0
    4.9110    5.2756  -11.1659 H   0  0  0  0  0  0  0  0  0  0  0  0
    6.3538    5.4831  -10.1510 H   0  0  0  0  0  0  0  0  0  0  0  0
    4.8077    7.6492  -11.1407 H   0  0  0  0  0  0  0  0  0  0  0  0
  1  2  1  0  0  0  0
  2  3  1  0  0  0  0
  2  4  1  0  0  0  0
  2  5  1  0  0  0  0
  5  6  2  0  0  0  0
  5  7  1  0  0  0  0
  6  8  1  0  0  0  0
  6 27  1  0  0  0  0
  7  9  2  0  0  0  0
  7 28  1  0  0  0  0
  8 10  2  0  0  0  0
  8 29  1  0  0  0  0
  9 10  1  0  0  0  0
  9 30  1  0  0  0  0
 10 11  1  0  0  0  0
 11 12  1  0  0  0  0
 11 31  1  0  0  0  0
 12 13  1  0  0  0  0
 12 14  2  0  0  0  0
 13 15  1  0  0  0  0
 13 16  1  0  0  0  0
 14 17  1  0  0  0  0
 14 32  1  0  0  0  0
 15 18  2  0  0  0  0
 16 19  1  0  0  0  0
 16 20  2  0  0  0  0
 17 21  1  0  0  0  0
 17 19  2  0  0  0  0
 18 22  1  0  0  0  0
 18 20  1  0  0  0  0
 21 33  1  0  0  0  0
 21 34  1  0  0  0  0
 21 35  1  0  0  0  0
 22 23  1  0  0  0  0
 22 24  1  0  0  0  0
 22 25  1  0  0  0  0
 25 26  1  0  0  0  0
 25 36  1  0  0  0  0
 25 37  1  0  0  0  0
 26 38  1  0  0  0  0
M  END
>  <ID>
382

>  <Parent ID>
314

>  <Generation>
3

>  <Parent Generation>
2

>  <Child No>
7

>  <Fitness>
0.95031

>  <SkelSpheres sim score>
0.97791

>  <FragFp sim score>
0.9235

$$$$
Compound 42
 OpenBabel11072204213D

 38 40  0  0  0  0  0  0  0  0999 V2000
    0.9027    1.6029   -0.1073 S   0  0  0  0  0  0  0  0  0  0  0  0
    2.7345    1.5189   -0.0477 C   0  0  0  0  0  0  0  0  0  0  0  0
    3.3614    0.7278   -1.2026 C   0  0  0  0  0  0  0  0  0  0  0  0
    2.8802   -0.5503   -1.1873 F   0  0  0  0  0  0  0  0  0  0  0  0
    2.9513    1.2657   -2.3911 F   0  0  0  0  0  0  0  0  0  0  0  0
    4.8752    0.7498   -1.1302 C   0  0  0  0  0  0  0  0  0  0  0  0
    5.6644   -0.3417   -1.0833 N   0  0  0  0  0  0  0  0  0  0  0  0
    5.5561    1.9443   -1.1378 N   0  0  0  0  0  0  0  0  0  0  0  0
    6.9120    0.1944   -1.1796 N   0  0  0  0  0  0  0  0  0  0  0  0
    6.8184    1.5953   -1.1867 C   0  0  0  0  0  0  0  0  0  0  0  0
    8.1710   -0.4504   -1.2970 C   0  0  0  0  0  0  0  0  0  0  0  0
    7.9180    2.4022   -1.2277 N   0  0  0  0  0  0  0  0  0  0  0  0
    8.2462   -1.8430   -1.2218 N   0  0  0  0  0  0  0  0  0  0  0  0
    9.2384    0.3388   -1.5317 C   0  0  0  0  0  0  0  0  0  0  0  0
    9.0589    1.8067   -1.3890 C   0  0  0  0  0  0  0  0  0  0  0  0
    9.3922   -2.5960   -0.8869 C   0  0  0  0  0  0  0  0  0  0  0  0
   10.3285    2.6163   -1.3513 C   0  0  0  0  0  0  0  0  0  0  0  0
   10.4068   -2.0721   -0.0677 C   0  0  0  0  0  0  0  0  0  0  0  0
    9.6272   -3.8310   -1.4984 C   0  0  0  0  0  0  0  0  0  0  0  0
   11.6541   -2.6888    0.0462 C   0  0  0  0  0  0  0  0  0  0  0  0
   10.8745   -4.4664   -1.3751 C   0  0  0  0  0  0  0  0  0  0  0  0
   11.9148   -3.8776   -0.6385 C   0  0  0  0  0  0  0  0  0  0  0  0
   13.2950   -4.4906   -0.6163 C   0  0  0  0  0  0  0  0  0  0  0  0
   14.2073   -3.7448    0.0697 F   0  0  0  0  0  0  0  0  0  0  0  0
   13.3171   -5.7255   -0.0484 F   0  0  0  0  0  0  0  0  0  0  0  0
   13.8130   -4.6409   -1.8682 F   0  0  0  0  0  0  0  0  0  0  0  0
    0.7456    2.3567    0.9906 H   0  0  0  0  0  0  0  0  0  0  0  0
    3.0026    1.0630    0.9110 H   0  0  0  0  0  0  0  0  0  0  0  0
    3.0961    2.5528   -0.0449 H   0  0  0  0  0  0  0  0  0  0  0  0
    7.3590   -2.3428   -1.2836 H   0  0  0  0  0  0  0  0  0  0  0  0
   10.2310   -0.0342   -1.7438 H   0  0  0  0  0  0  0  0  0  0  0  0
   10.1076    3.6859   -1.3474 H   0  0  0  0  0  0  0  0  0  0  0  0
   10.9520    2.3774   -2.2172 H   0  0  0  0  0  0  0  0  0  0  0  0
   10.8775    2.3640   -0.4378 H   0  0  0  0  0  0  0  0  0  0  0  0
   10.2468   -1.1454    0.4793 H   0  0  0  0  0  0  0  0  0  0  0  0
    8.8667   -4.2844   -2.1299 H   0  0  0  0  0  0  0  0  0  0  0  0
   12.4276   -2.2118    0.6460 H   0  0  0  0  0  0  0  0  0  0  0  0
   11.0462   -5.4076   -1.8972 H   0  0  0  0  0  0  0  0  0  0  0  0
  1  2  1  0  0  0  0
  1 27  1  0  0  0  0
  2  3  1  0  0  0  0
  2 28  1  0  0  0  0
  2 29  1  0  0  0  0
  3  4  1  0  0  0  0
  3  5  1  0  0  0  0
  3  6  1  0  0  0  0
  6  7  2  0  0  0  0
  6  8  1  0  0  0  0
  7  9  1  0  0  0  0
  8 10  2  0  0  0  0
  9 11  1  0  0  0  0
  9 10  1  0  0  0  0
 10 12  1  0  0  0  0
 11 13  1  0  0  0  0
 11 14  2  0  0  0  0
 12 15  2  0  0  0  0
 13 16  1  0  0  0  0
 13 30  1  0  0  0  0
 14 15  1  0  0  0  0
 14 31  1  0  0  0  0
 15 17  1  0  0  0  0
 16 18  2  0  0  0  0
 16 19  1  0  0  0  0
 17 32  1  0  0  0  0
 17 33  1  0  0  0  0
 17 34  1  0  0  0  0
 18 20  1  0  0  0  0
 18 35  1  0  0  0  0
 19 21  2  0  0  0  0
 19 36  1  0  0  0  0
 20 22  2  0  0  0  0
 20 37  1  0  0  0  0
 21 22  1  0  0  0  0
 21 38  1  0  0  0  0
 22 23  1  0  0  0  0
 23 24  1  0  0  0  0
 23 25  1  0  0  0  0
 23 26  1  0  0  0  0
M  END
>  <ID>
395

>  <Parent ID>
330

>  <Generation>
2

>  <Parent Generation>
1

>  <Child No>
1

>  <Fitness>
0.96903

>  <SkelSpheres sim score>
0.97791

>  <FragFp sim score>
0.96023

$$$$
Compound 43
 OpenBabel11072204213D

 39 41  0  0  0  0  0  0  0  0999 V2000
    2.5432   -0.4310    0.9232 F   0  0  0  0  0  0  0  0  0  0  0  0
    2.5363    0.2467   -0.2580 C   0  0  0  0  0  0  0  0  0  0  0  0
    1.3983    0.9929   -0.2537 F   0  0  0  0  0  0  0  0  0  0  0  0
    3.5657    1.1349   -0.1821 F   0  0  0  0  0  0  0  0  0  0  0  0
    2.6406   -0.6397   -1.4602 C   0  0  0  0  0  0  0  0  0  0  0  0
    2.7044   -2.0152   -1.3278 C   0  0  0  0  0  0  0  0  0  0  0  0
    2.7005   -0.1232   -2.7562 C   0  0  0  0  0  0  0  0  0  0  0  0
    2.8430   -2.8697   -2.3691 N   0  0  0  0  0  0  0  0  0  0  0  0
    2.8707   -0.9864   -3.8402 C   0  0  0  0  0  0  0  0  0  0  0  0
    2.9546   -2.3571   -3.6158 C   0  0  0  0  0  0  0  0  0  0  0  0
    3.1502   -3.2137   -4.7250 N   0  0  0  0  0  0  0  0  0  0  0  0
    2.9477   -4.5935   -4.6518 C   0  0  0  0  0  0  0  0  0  0  0  0
    3.8826   -5.4437   -5.2785 N   0  0  0  0  0  0  0  0  0  0  0  0
    1.8946   -5.1685   -4.0429 C   0  0  0  0  0  0  0  0  0  0  0  0
    5.0057   -5.1126   -5.9777 N   0  0  0  0  0  0  0  0  0  0  0  0
    3.7347   -6.8350   -5.2509 C   0  0  0  0  0  0  0  0  0  0  0  0
    1.8363   -6.6567   -4.0324 C   0  0  0  0  0  0  0  0  0  0  0  0
    5.5004   -6.3190   -6.3155 C   0  0  0  0  0  0  0  0  0  0  0  0
    2.6946   -7.4409   -4.6125 N   0  0  0  0  0  0  0  0  0  0  0  0
    4.7332   -7.3853   -5.9047 N   0  0  0  0  0  0  0  0  0  0  0  0
    0.6929   -7.2814   -3.2745 C   0  0  0  0  0  0  0  0  0  0  0  0
    6.7756   -6.5266   -7.1064 C   0  0  0  0  0  0  0  0  0  0  0  0
    7.3791   -5.3413   -7.4263 F   0  0  0  0  0  0  0  0  0  0  0  0
    7.6971   -7.2019   -6.3514 F   0  0  0  0  0  0  0  0  0  0  0  0
    6.5723   -7.3192   -8.3978 C   0  0  0  0  0  0  0  0  0  0  0  0
    5.6510   -6.6274   -9.3920 C   0  0  0  0  0  0  0  0  0  0  0  0
    2.6532   -2.4988   -0.3540 H   0  0  0  0  0  0  0  0  0  0  0  0
    2.6271    0.9498   -2.9252 H   0  0  0  0  0  0  0  0  0  0  0  0
    2.9187   -0.5888   -4.8493 H   0  0  0  0  0  0  0  0  0  0  0  0
    4.0222   -2.9817   -5.2041 H   0  0  0  0  0  0  0  0  0  0  0  0
    1.1162   -4.5999   -3.5519 H   0  0  0  0  0  0  0  0  0  0  0  0
    0.0277   -6.5220   -2.8555 H   0  0  0  0  0  0  0  0  0  0  0  0
    1.0965   -7.8832   -2.4547 H   0  0  0  0  0  0  0  0  0  0  0  0
    0.1174   -7.9244   -3.9455 H   0  0  0  0  0  0  0  0  0  0  0  0
    6.1872   -8.3210   -8.1729 H   0  0  0  0  0  0  0  0  0  0  0  0
    7.5496   -7.4650   -8.8744 H   0  0  0  0  0  0  0  0  0  0  0  0
    4.6395   -6.5150   -8.9898 H   0  0  0  0  0  0  0  0  0  0  0  0
    5.5793   -7.2163  -10.3120 H   0  0  0  0  0  0  0  0  0  0  0  0
    6.0309   -5.6350   -9.6540 H   0  0  0  0  0  0  0  0  0  0  0  0
  1  2  1  0  0  0  0
  2  3  1  0  0  0  0
  2  4  1  0  0  0  0
  2  5  1  0  0  0  0
  5  6  2  0  0  0  0
  5  7  1  0  0  0  0
  6  8  1  0  0  0  0
  6 27  1  0  0  0  0
  7  9  2  0  0  0  0
  7 28  1  0  0  0  0
  8 10  2  0  0  0  0
  9 10  1  0  0  0  0
  9 29  1  0  0  0  0
 10 11  1  0  0  0  0
 11 12  1  0  0  0  0
 11 30  1  0  0  0  0
 12 13  1  0  0  0  0
 12 14  2  0  0  0  0
 13 15  1  0  0  0  0
 13 16  1  0  0  0  0
 14 17  1  0  0  0  0
 14 31  1  0  0  0  0
 15 18  2  0  0  0  0
 16 19  1  0  0  0  0
 16 20  2  0  0  0  0
 17 21  1  0  0  0  0
 17 19  2  0  0  0  0
 18 22  1  0  0  0  0
 18 20  1  0  0  0  0
 21 32  1  0  0  0  0
 21 33  1  0  0  0  0
 21 34  1  0  0  0  0
 22 23  1  0  0  0  0
 22 24  1  0  0  0  0
 22 25  1  0  0  0  0
 25 26  1  0  0  0  0
 25 35  1  0  0  0  0
 25 36  1  0  0  0  0
 26 37  1  0  0  0  0
 26 38  1  0  0  0  0
 26 39  1  0  0  0  0
M  END
>  <ID>
408

>  <Parent ID>
340

>  <Generation>
3

>  <Parent Generation>
2

>  <Child No>
4

>  <Fitness>
0.95928

>  <SkelSpheres sim score>
0.95857

>  <FragFp sim score>
0.96

$$$$
Compound 44
 OpenBabel11072204213D

 40 42  0  0  0  0  0  0  0  0999 V2000
    1.4135    0.2496    1.2077 Br  0  0  0  0  0  0  0  0  0  0  0  0
    3.1020    0.1375    0.4101 C   0  0  0  0  0  0  0  0  0  0  0  0
    3.7372   -1.0246    0.1187 C   0  0  0  0  0  0  0  0  0  0  0  0
    3.8582    1.4073    0.0940 C   0  0  0  0  0  0  0  0  0  0  0  0
    5.1489   -0.9412   -0.0816 N   0  0  0  0  0  0  0  0  0  0  0  0
    3.1436   -2.3030    0.1134 N   0  0  0  0  0  0  0  0  0  0  0  0
    5.1308    1.4719   -0.1556 N   0  0  0  0  0  0  0  0  0  0  0  0
    3.1123    2.7156   -0.0178 C   0  0  0  0  0  0  0  0  0  0  0  0
    6.0840   -1.9419   -0.1199 N   0  0  0  0  0  0  0  0  0  0  0  0
    5.8018    0.2933   -0.1454 C   0  0  0  0  0  0  0  0  0  0  0  0
    2.0920   -2.6927   -0.7779 C   0  0  0  0  0  0  0  0  0  0  0  0
    7.2422   -1.2475   -0.1483 C   0  0  0  0  0  0  0  0  0  0  0  0
    7.0947    0.1125   -0.2022 N   0  0  0  0  0  0  0  0  0  0  0  0
    1.4154   -1.8002   -1.6255 C   0  0  0  0  0  0  0  0  0  0  0  0
    1.6472   -4.0229   -0.7677 C   0  0  0  0  0  0  0  0  0  0  0  0
    8.6484   -1.8231   -0.0606 C   0  0  0  0  0  0  0  0  0  0  0  0
    0.3904   -2.2277   -2.4814 C   0  0  0  0  0  0  0  0  0  0  0  0
    0.6311   -4.4612   -1.6379 C   0  0  0  0  0  0  0  0  0  0  0  0
    8.6551   -3.1790    0.0950 F   0  0  0  0  0  0  0  0  0  0  0  0
    9.3291   -1.5888   -1.2260 F   0  0  0  0  0  0  0  0  0  0  0  0
    9.4759   -1.1977    1.0750 C   0  0  0  0  0  0  0  0  0  0  0  0
    0.0066   -3.5703   -2.5207 C   0  0  0  0  0  0  0  0  0  0  0  0
    8.9527   -1.5281    2.4662 C   0  0  0  0  0  0  0  0  0  0  0  0
   -1.0285   -4.0569   -3.5078 C   0  0  0  0  0  0  0  0  0  0  0  0
   -1.5720   -3.0608   -4.2650 F   0  0  0  0  0  0  0  0  0  0  0  0
   -0.5145   -4.9542   -4.3962 F   0  0  0  0  0  0  0  0  0  0  0  0
   -2.0795   -4.6837   -2.9106 F   0  0  0  0  0  0  0  0  0  0  0  0
    3.8493   -3.0476    0.1531 H   0  0  0  0  0  0  0  0  0  0  0  0
    2.0528    2.5768   -0.2364 H   0  0  0  0  0  0  0  0  0  0  0  0
    3.5376    3.2962   -0.8442 H   0  0  0  0  0  0  0  0  0  0  0  0
    3.2386    3.2779    0.9096 H   0  0  0  0  0  0  0  0  0  0  0  0
    1.6732   -0.7485   -1.6682 H   0  0  0  0  0  0  0  0  0  0  0  0
    2.0936   -4.7446   -0.0888 H   0  0  0  0  0  0  0  0  0  0  0  0
   -0.0955   -1.4976   -3.1294 H   0  0  0  0  0  0  0  0  0  0  0  0
    0.3364   -5.5101   -1.6276 H   0  0  0  0  0  0  0  0  0  0  0  0
    9.5226   -0.1079    0.9554 H   0  0  0  0  0  0  0  0  0  0  0  0
   10.5108   -1.5534    0.9999 H   0  0  0  0  0  0  0  0  0  0  0  0
    7.9342   -1.1547    2.6121 H   0  0  0  0  0  0  0  0  0  0  0  0
    9.5888   -1.0674    3.2281 H   0  0  0  0  0  0  0  0  0  0  0  0
    8.9523   -2.6093    2.6352 H   0  0  0  0  0  0  0  0  0  0  0  0
  1  2  1  0  0  0  0
  2  3  2  0  0  0  0
  2  4  1  0  0  0  0
  3  5  1  0  0  0  0
  3  6  1  0  0  0  0
  4  7  2  0  0  0  0
  4  8  1  0  0  0  0
  5  9  1  0  0  0  0
  5 10  1  0  0  0  0
  6 11  1  0  0  0  0
  6 28  1  0  0  0  0
  7 10  1  0  0  0  0
  8 29  1  0  0  0  0
  8 30  1  0  0  0  0
  8 31  1  0  0  0  0
  9 12  2  0  0  0  0
 10 13  2  0  0  0  0
 11 14  2  0  0  0  0
 11 15  1  0  0  0  0
 12 16  1  0  0  0  0
 12 13  1  0  0  0  0
 14 17  1  0  0  0  0
 14 32  1  0  0  0  0
 15 18  2  0  0  0  0
 15 33  1  0  0  0  0
 16 19  1  0  0  0  0
 16 20  1  0  0  0  0
 16 21  1  0  0  0  0
 17 22  2  0  0  0  0
 17 34  1  0  0  0  0
 18 22  1  0  0  0  0
 18 35  1  0  0  0  0
 21 23  1  0  0  0  0
 21 36  1  0  0  0  0
 21 37  1  0  0  0  0
 22 24  1  0  0  0  0
 23 38  1  0  0  0  0
 23 39  1  0  0  0  0
 23 40  1  0  0  0  0
 24 25  1  0  0  0  0
 24 26  1  0  0  0  0
 24 27  1  0  0  0  0
M  END
>  <ID>
422

>  <Parent ID>
1

>  <Generation>
1

>  <Parent Generation>
0

>  <Child No>
8

>  <Fitness>
0.94525

>  <SkelSpheres sim score>
0.90377

>  <FragFp sim score>
0.98864

$$$$
Compound 45
 OpenBabel11072204213D

 43 45  0  0  0  0  0  0  0  0999 V2000
   -0.4907    0.0148    1.3559 F   0  0  0  0  0  0  0  0  0  0  0  0
    0.8179    0.1046    0.9563 C   0  0  0  0  0  0  0  0  0  0  0  0
    1.0516    1.4463    0.8370 F   0  0  0  0  0  0  0  0  0  0  0  0
    1.7486   -0.5522    1.9544 C   0  0  0  0  0  0  0  0  0  0  0  0
    0.9108   -0.5279   -0.4314 C   0  0  0  0  0  0  0  0  0  0  0  0
    1.3105   -1.6307    2.7309 C   0  0  0  0  0  0  0  0  0  0  0  0
    3.0571   -0.0861    2.1306 C   0  0  0  0  0  0  0  0  0  0  0  0
    2.1734   -0.4401   -0.9337 F   0  0  0  0  0  0  0  0  0  0  0  0
    2.1682   -2.2373    3.6544 C   0  0  0  0  0  0  0  0  0  0  0  0
    3.9130   -0.6945    3.0575 C   0  0  0  0  0  0  0  0  0  0  0  0
    3.4924   -1.8032    3.8045 C   0  0  0  0  0  0  0  0  0  0  0  0
    4.3974   -2.3829    4.7465 N   0  0  0  0  0  0  0  0  0  0  0  0
    4.2458   -3.7184    5.1349 C   0  0  0  0  0  0  0  0  0  0  0  0
    4.9574   -4.6939    4.4088 N   0  0  0  0  0  0  0  0  0  0  0  0
    3.4502   -4.1275    6.1383 C   0  0  0  0  0  0  0  0  0  0  0  0
    5.8262   -4.5119    3.3803 N   0  0  0  0  0  0  0  0  0  0  0  0
    4.8004   -6.0546    4.6693 C   0  0  0  0  0  0  0  0  0  0  0  0
    3.3438   -5.6037    6.3472 C   0  0  0  0  0  0  0  0  0  0  0  0
    6.1319   -5.7739    3.0357 C   0  0  0  0  0  0  0  0  0  0  0  0
    3.9767   -6.5065    5.6570 N   0  0  0  0  0  0  0  0  0  0  0  0
    5.5180   -6.7377    3.8057 N   0  0  0  0  0  0  0  0  0  0  0  0
    2.4042   -6.0752    7.4296 C   0  0  0  0  0  0  0  0  0  0  0  0
    7.0295   -6.1313    1.8722 C   0  0  0  0  0  0  0  0  0  0  0  0
    7.5430   -5.0202    1.2621 F   0  0  0  0  0  0  0  0  0  0  0  0
    8.1202   -6.8315    2.3116 F   0  0  0  0  0  0  0  0  0  0  0  0
    6.3344   -6.9781    0.8064 C   0  0  0  0  0  0  0  0  0  0  0  0
    5.1678   -6.2704    0.1310 C   0  0  0  0  0  0  0  0  0  0  0  0
    0.2441   -0.0077   -1.1258 H   0  0  0  0  0  0  0  0  0  0  0  0
    0.6238   -1.5841   -0.4126 H   0  0  0  0  0  0  0  0  0  0  0  0
    0.2932   -2.0049    2.6319 H   0  0  0  0  0  0  0  0  0  0  0  0
    3.4226    0.7557    1.5439 H   0  0  0  0  0  0  0  0  0  0  0  0
    1.7756   -3.0615    4.2399 H   0  0  0  0  0  0  0  0  0  0  0  0
    4.9191   -0.3013    3.1747 H   0  0  0  0  0  0  0  0  0  0  0  0
    5.3354   -2.2616    4.3434 H   0  0  0  0  0  0  0  0  0  0  0  0
    2.8722   -3.4464    6.7481 H   0  0  0  0  0  0  0  0  0  0  0  0
    1.9223   -5.2354    7.9383 H   0  0  0  0  0  0  0  0  0  0  0  0
    2.9643   -6.6606    8.1645 H   0  0  0  0  0  0  0  0  0  0  0  0
    1.6303   -6.7078    6.9846 H   0  0  0  0  0  0  0  0  0  0  0  0
    5.9896   -7.9242    1.2401 H   0  0  0  0  0  0  0  0  0  0  0  0
    7.0709   -7.2410    0.0372 H   0  0  0  0  0  0  0  0  0  0  0  0
    4.3714   -6.0364    0.8442 H   0  0  0  0  0  0  0  0  0  0  0  0
    4.7393   -6.9114   -0.6465 H   0  0  0  0  0  0  0  0  0  0  0  0
    5.4929   -5.3383   -0.3417 H   0  0  0  0  0  0  0  0  0  0  0  0
  1  2  1  0  0  0  0
  2  3  1  0  0  0  0
  2  4  1  0  0  0  0
  2  5  1  0  0  0  0
  4  6  2  0  0  0  0
  4  7  1  0  0  0  0
  5  8  1  0  0  0  0
  5 28  1  0  0  0  0
  5 29  1  0  0  0  0
  6  9  1  0  0  0  0
  6 30  1  0  0  0  0
  7 10  2  0  0  0  0
  7 31  1  0  0  0  0
  9 11  2  0  0  0  0
  9 32  1  0  0  0  0
 10 11  1  0  0  0  0
 10 33  1  0  0  0  0
 11 12  1  0  0  0  0
 12 13  1  0  0  0  0
 12 34  1  0  0  0  0
 13 14  1  0  0  0  0
 13 15  2  0  0  0  0
 14 16  1  0  0  0  0
 14 17  1  0  0  0  0
 15 18  1  0  0  0  0
 15 35  1  0  0  0  0
 16 19  2  0  0  0  0
 17 20  1  0  0  0  0
 17 21  2  0  0  0  0
 18 22  1  0  0  0  0
 18 20  2  0  0  0  0
 19 23  1  0  0  0  0
 19 21  1  0  0  0  0
 22 36  1  0  0  0  0
 22 37  1  0  0  0  0
 22 38  1  0  0  0  0
 23 24  1  0  0  0  0
 23 25  1  0  0  0  0
 23 26  1  0  0  0  0
 26 27  1  0  0  0  0
 26 39  1  0  0  0  0
 26 40  1  0  0  0  0
 27 41  1  0  0  0  0
 27 42  1  0  0  0  0
 27 43  1  0  0  0  0
M  END
>  <ID>
423

>  <Parent ID>
1

>  <Generation>
1

>  <Parent Generation>
0

>  <Child No>
6

>  <Fitness>
0.95133

>  <SkelSpheres sim score>
0.92064

>  <FragFp sim score>
0.98305

$$$$
Compound 46
 OpenBabel11072204213D

 41 43  0  0  0  0  0  0  0  0999 V2000
    6.1716    1.5709    1.9063 S   0  0  0  0  0  0  0  0  0  0  0  0
    5.0936    0.6676    0.7515 C   0  0  0  0  0  0  0  0  0  0  0  0
    5.7404    0.5841   -0.6270 C   0  0  0  0  0  0  0  0  0  0  0  0
    4.8565   -0.2092   -1.5883 C   0  0  0  0  0  0  0  0  0  0  0  0
    4.6924   -1.4678   -1.0827 F   0  0  0  0  0  0  0  0  0  0  0  0
    3.6072    0.3486   -1.5809 F   0  0  0  0  0  0  0  0  0  0  0  0
    5.4060   -0.2353   -3.0013 C   0  0  0  0  0  0  0  0  0  0  0  0
    5.6896   -1.3506   -3.7036 N   0  0  0  0  0  0  0  0  0  0  0  0
    5.6252    0.9372   -3.6821 N   0  0  0  0  0  0  0  0  0  0  0  0
    6.0544   -0.8494   -4.9217 N   0  0  0  0  0  0  0  0  0  0  0  0
    6.0203    0.5542   -4.8718 C   0  0  0  0  0  0  0  0  0  0  0  0
    6.4013   -1.5298   -6.1179 C   0  0  0  0  0  0  0  0  0  0  0  0
    6.3760    1.3330   -5.9331 N   0  0  0  0  0  0  0  0  0  0  0  0
    6.4621   -2.9258   -6.1244 N   0  0  0  0  0  0  0  0  0  0  0  0
    6.6065   -0.7674   -7.2092 C   0  0  0  0  0  0  0  0  0  0  0  0
    6.6570    0.7064   -7.0329 C   0  0  0  0  0  0  0  0  0  0  0  0
    7.1754   -3.7339   -7.0342 C   0  0  0  0  0  0  0  0  0  0  0  0
    7.1386    1.4934   -8.2239 C   0  0  0  0  0  0  0  0  0  0  0  0
    8.3271   -3.2705   -7.6904 C   0  0  0  0  0  0  0  0  0  0  0  0
    6.6636   -4.9753   -7.4272 C   0  0  0  0  0  0  0  0  0  0  0  0
    8.8883   -3.9583   -8.7693 C   0  0  0  0  0  0  0  0  0  0  0  0
    7.2308   -5.6800   -8.5030 C   0  0  0  0  0  0  0  0  0  0  0  0
    8.3202   -5.1540   -9.2155 C   0  0  0  0  0  0  0  0  0  0  0  0
    8.8429   -5.8403  -10.4553 C   0  0  0  0  0  0  0  0  0  0  0  0
    9.8438   -5.1513  -11.0743 F   0  0  0  0  0  0  0  0  0  0  0  0
    9.3416   -7.0800  -10.2040 F   0  0  0  0  0  0  0  0  0  0  0  0
    7.8750   -6.0067  -11.3999 F   0  0  0  0  0  0  0  0  0  0  0  0
    5.3549    1.5025    2.9689 H   0  0  0  0  0  0  0  0  0  0  0  0
    4.1348    1.1942    0.7029 H   0  0  0  0  0  0  0  0  0  0  0  0
    4.9125   -0.3294    1.1642 H   0  0  0  0  0  0  0  0  0  0  0  0
    6.7210    0.0975   -0.5526 H   0  0  0  0  0  0  0  0  0  0  0  0
    5.8977    1.5987   -1.0149 H   0  0  0  0  0  0  0  0  0  0  0  0
    6.0238   -3.3926   -5.3316 H   0  0  0  0  0  0  0  0  0  0  0  0
    6.7789   -1.1679   -8.2005 H   0  0  0  0  0  0  0  0  0  0  0  0
    7.1102    2.5657   -8.0173 H   0  0  0  0  0  0  0  0  0  0  0  0
    6.5126    1.2744   -9.0931 H   0  0  0  0  0  0  0  0  0  0  0  0
    8.1714    1.2033   -8.4449 H   0  0  0  0  0  0  0  0  0  0  0  0
    8.8037   -2.3450   -7.3762 H   0  0  0  0  0  0  0  0  0  0  0  0
    5.7840   -5.3856   -6.9376 H   0  0  0  0  0  0  0  0  0  0  0  0
    9.7519   -3.5315   -9.2788 H   0  0  0  0  0  0  0  0  0  0  0  0
    6.7892   -6.6276   -8.8112 H   0  0  0  0  0  0  0  0  0  0  0  0
  1  2  1  0  0  0  0
  1 28  1  0  0  0  0
  2  3  1  0  0  0  0
  2 29  1  0  0  0  0
  2 30  1  0  0  0  0
  3  4  1  0  0  0  0
  3 31  1  0  0  0  0
  3 32  1  0  0  0  0
  4  5  1  0  0  0  0
  4  6  1  0  0  0  0
  4  7  1  0  0  0  0
  7  8  2  0  0  0  0
  7  9  1  0  0  0  0
  8 10  1  0  0  0  0
  9 11  2  0  0  0  0
 10 12  1  0  0  0  0
 10 11  1  0  0  0  0
 11 13  1  0  0  0  0
 12 14  1  0  0  0  0
 12 15  2  0  0  0  0
 13 16  2  0  0  0  0
 14 17  1  0  0  0  0
 14 33  1  0  0  0  0
 15 16  1  0  0  0  0
 15 34  1  0  0  0  0
 16 18  1  0  0  0  0
 17 19  2  0  0  0  0
 17 20  1  0  0  0  0
 18 35  1  0  0  0  0
 18 36  1  0  0  0  0
 18 37  1  0  0  0  0
 19 21  1  0  0  0  0
 19 38  1  0  0  0  0
 20 22  2  0  0  0  0
 20 39  1  0  0  0  0
 21 23  2  0  0  0  0
 21 40  1  0  0  0  0
 22 23  1  0  0  0  0
 22 41  1  0  0  0  0
 23 24  1  0  0  0  0
 24 25  1  0  0  0  0
 24 26  1  0  0  0  0
 24 27  1  0  0  0  0
M  END
>  <ID>
426

>  <Parent ID>
1

>  <Generation>
1

>  <Parent Generation>
0

>  <Child No>
2

>  <Fitness>
0.9651

>  <SkelSpheres sim score>
0.95818

>  <FragFp sim score>
0.97207

$$$$
Compound 47
 OpenBabel11072204213D

 41 43  0  0  0  0  0  0  0  0999 V2000
    7.5851   -0.3058   -0.5724 F   0  0  0  0  0  0  0  0  0  0  0  0
    6.9862    0.8087   -1.0805 C   0  0  0  0  0  0  0  0  0  0  0  0
    6.4132    1.4409   -0.0211 F   0  0  0  0  0  0  0  0  0  0  0  0
    8.0020    1.6156   -1.4966 F   0  0  0  0  0  0  0  0  0  0  0  0
    6.0052    0.5118   -2.1880 C   0  0  0  0  0  0  0  0  0  0  0  0
    5.8066   -0.7963   -2.6344 C   0  0  0  0  0  0  0  0  0  0  0  0
    5.3031    1.5467   -2.8226 C   0  0  0  0  0  0  0  0  0  0  0  0
    4.9931   -1.0530   -3.7416 C   0  0  0  0  0  0  0  0  0  0  0  0
    4.4807    1.2817   -3.9276 C   0  0  0  0  0  0  0  0  0  0  0  0
    4.3627   -0.0153   -4.4449 C   0  0  0  0  0  0  0  0  0  0  0  0
    3.5802   -0.2202   -5.6183 N   0  0  0  0  0  0  0  0  0  0  0  0
    3.5312   -1.4412   -6.3001 C   0  0  0  0  0  0  0  0  0  0  0  0
    3.9775   -1.4959   -7.6375 N   0  0  0  0  0  0  0  0  0  0  0  0
    3.0608   -2.5789   -5.7588 C   0  0  0  0  0  0  0  0  0  0  0  0
    4.3902   -0.4799   -8.4529 N   0  0  0  0  0  0  0  0  0  0  0  0
    4.0311   -2.7081   -8.3309 C   0  0  0  0  0  0  0  0  0  0  0  0
    3.2068   -3.8554   -6.5297 C   0  0  0  0  0  0  0  0  0  0  0  0
    4.5881   -1.1159   -9.6255 C   0  0  0  0  0  0  0  0  0  0  0  0
    3.6803   -3.8908   -7.7541 N   0  0  0  0  0  0  0  0  0  0  0  0
    4.4417   -2.4818   -9.5589 N   0  0  0  0  0  0  0  0  0  0  0  0
    2.8319   -5.0294   -5.8814 N   0  0  0  0  0  0  0  0  0  0  0  0
    4.8964   -0.4205  -10.9387 C   0  0  0  0  0  0  0  0  0  0  0  0
    3.4183   -6.2269   -6.3524 N   0  0  0  0  0  0  0  0  0  0  0  0
    4.3082   -1.0870  -11.9793 F   0  0  0  0  0  0  0  0  0  0  0  0
    4.3574    0.8358  -10.9675 F   0  0  0  0  0  0  0  0  0  0  0  0
    6.3926   -0.3126  -11.2273 C   0  0  0  0  0  0  0  0  0  0  0  0
    6.6611    0.3453  -12.5780 C   0  0  0  0  0  0  0  0  0  0  0  0
    6.3101   -1.6302   -2.1460 H   0  0  0  0  0  0  0  0  0  0  0  0
    5.4135    2.5727   -2.4740 H   0  0  0  0  0  0  0  0  0  0  0  0
    4.9161   -2.0871   -4.0575 H   0  0  0  0  0  0  0  0  0  0  0  0
    3.9548    2.1095   -4.3994 H   0  0  0  0  0  0  0  0  0  0  0  0
    3.7384    0.5549   -6.2715 H   0  0  0  0  0  0  0  0  0  0  0  0
    2.6419   -2.6154   -4.7626 H   0  0  0  0  0  0  0  0  0  0  0  0
    2.6915   -4.9759   -4.8712 H   0  0  0  0  0  0  0  0  0  0  0  0
    3.7967   -6.0528   -7.2963 H   0  0  0  0  0  0  0  0  0  0  0  0
    2.6880   -6.9285   -6.5018 H   0  0  0  0  0  0  0  0  0  0  0  0
    6.8499   -1.3082  -11.2284 H   0  0  0  0  0  0  0  0  0  0  0  0
    6.8824    0.2793  -10.4458 H   0  0  0  0  0  0  0  0  0  0  0  0
    6.2281   -0.2406  -13.3956 H   0  0  0  0  0  0  0  0  0  0  0  0
    7.7386    0.4238  -12.7555 H   0  0  0  0  0  0  0  0  0  0  0  0
    6.2373    1.3539  -12.6192 H   0  0  0  0  0  0  0  0  0  0  0  0
  1  2  1  0  0  0  0
  2  3  1  0  0  0  0
  2  4  1  0  0  0  0
  2  5  1  0  0  0  0
  5  6  2  0  0  0  0
  5  7  1  0  0  0  0
  6  8  1  0  0  0  0
  6 28  1  0  0  0  0
  7  9  2  0  0  0  0
  7 29  1  0  0  0  0
  8 10  2  0  0  0  0
  8 30  1  0  0  0  0
  9 10  1  0  0  0  0
  9 31  1  0  0  0  0
 10 11  1  0  0  0  0
 11 12  1  0  0  0  0
 11 32  1  0  0  0  0
 12 13  1  0  0  0  0
 12 14  2  0  0  0  0
 13 15  1  0  0  0  0
 13 16  1  0  0  0  0
 14 17  1  0  0  0  0
 14 33  1  0  0  0  0
 15 18  2  0  0  0  0
 16 19  1  0  0  0  0
 16 20  2  0  0  0  0
 17 21  1  0  0  0  0
 17 19  2  0  0  0  0
 18 22  1  0  0  0  0
 18 20  1  0  0  0  0
 21 23  1  0  0  0  0
 21 34  1  0  0  0  0
 22 24  1  0  0  0  0
 22 25  1  0  0  0  0
 22 26  1  0  0  0  0
 23 35  1  0  0  0  0
 23 36  1  0  0  0  0
 26 27  1  0  0  0  0
 26 37  1  0  0  0  0
 26 38  1  0  0  0  0
 27 39  1  0  0  0  0
 27 40  1  0  0  0  0
 27 41  1  0  0  0  0
M  END
>  <ID>
430

>  <Parent ID>
110

>  <Generation>
4

>  <Parent Generation>
3

>  <Child No>
5

>  <Fitness>
0.95692

>  <SkelSpheres sim score>
0.93686

>  <FragFp sim score>
0.9774

$$$$
Compound 48
 OpenBabel11072204213D

 38 40  0  0  0  0  0  0  0  0999 V2000
    7.6681   -0.2103   -0.6290 F   0  0  0  0  0  0  0  0  0  0  0  0
    7.0317    0.8849   -1.1306 C   0  0  0  0  0  0  0  0  0  0  0  0
    6.4480    1.4975   -0.0635 F   0  0  0  0  0  0  0  0  0  0  0  0
    8.0178    1.7240   -1.5523 F   0  0  0  0  0  0  0  0  0  0  0  0
    6.0508    0.5610   -2.2308 C   0  0  0  0  0  0  0  0  0  0  0  0
    5.8743   -0.7547   -2.6667 C   0  0  0  0  0  0  0  0  0  0  0  0
    5.3212    1.5769   -2.8634 C   0  0  0  0  0  0  0  0  0  0  0  0
    5.0513   -1.0353   -3.7605 C   0  0  0  0  0  0  0  0  0  0  0  0
    4.4889    1.2880   -3.9551 C   0  0  0  0  0  0  0  0  0  0  0  0
    4.3907   -0.0144   -4.4613 C   0  0  0  0  0  0  0  0  0  0  0  0
    3.5936   -0.2421   -5.6220 N   0  0  0  0  0  0  0  0  0  0  0  0
    3.5602   -1.4610   -6.3064 C   0  0  0  0  0  0  0  0  0  0  0  0
    3.9585   -1.5018   -7.6613 N   0  0  0  0  0  0  0  0  0  0  0  0
    3.1466   -2.6142   -5.7433 C   0  0  0  0  0  0  0  0  0  0  0  0
    4.3200   -0.4800   -8.4940 N   0  0  0  0  0  0  0  0  0  0  0  0
    4.0088   -2.7123   -8.3657 C   0  0  0  0  0  0  0  0  0  0  0  0
    3.3525   -3.8638   -6.5315 C   0  0  0  0  0  0  0  0  0  0  0  0
    4.5298   -1.1167   -9.6613 C   0  0  0  0  0  0  0  0  0  0  0  0
    3.7456   -3.9084   -7.7702 N   0  0  0  0  0  0  0  0  0  0  0  0
    4.3521   -2.4772   -9.6101 N   0  0  0  0  0  0  0  0  0  0  0  0
    3.1415   -5.1652   -5.8035 C   0  0  0  0  0  0  0  0  0  0  0  0
    4.8630   -0.4413  -10.9749 C   0  0  0  0  0  0  0  0  0  0  0  0
    4.9579    0.9165  -10.8548 F   0  0  0  0  0  0  0  0  0  0  0  0
    6.0980   -0.8411  -11.4135 F   0  0  0  0  0  0  0  0  0  0  0  0
    3.8638   -0.7682  -12.0761 C   0  0  0  0  0  0  0  0  0  0  0  0
    2.4835   -0.2838  -11.6632 C   0  0  0  0  0  0  0  0  0  0  0  0
    1.3384    0.1181  -11.3207 N   0  0  0  0  0  0  0  0  0  0  0  0
    6.3966   -1.5743   -2.1752 H   0  0  0  0  0  0  0  0  0  0  0  0
    5.4119    2.6075   -2.5222 H   0  0  0  0  0  0  0  0  0  0  0  0
    4.9870   -2.0727   -4.0635 H   0  0  0  0  0  0  0  0  0  0  0  0
    3.9398    2.1014   -4.4229 H   0  0  0  0  0  0  0  0  0  0  0  0
    3.7103    0.5415   -6.2744 H   0  0  0  0  0  0  0  0  0  0  0  0
    2.7564   -2.6742   -4.7373 H   0  0  0  0  0  0  0  0  0  0  0  0
    2.9535   -5.0005   -4.7381 H   0  0  0  0  0  0  0  0  0  0  0  0
    4.0398   -5.7821   -5.9035 H   0  0  0  0  0  0  0  0  0  0  0  0
    2.2926   -5.6929   -6.2417 H   0  0  0  0  0  0  0  0  0  0  0  0
    3.8319   -1.8441  -12.2803 H   0  0  0  0  0  0  0  0  0  0  0  0
    4.1524   -0.2644  -13.0051 H   0  0  0  0  0  0  0  0  0  0  0  0
  1  2  1  0  0  0  0
  2  3  1  0  0  0  0
  2  4  1  0  0  0  0
  2  5  1  0  0  0  0
  5  6  2  0  0  0  0
  5  7  1  0  0  0  0
  6  8  1  0  0  0  0
  6 28  1  0  0  0  0
  7  9  2  0  0  0  0
  7 29  1  0  0  0  0
  8 10  2  0  0  0  0
  8 30  1  0  0  0  0
  9 10  1  0  0  0  0
  9 31  1  0  0  0  0
 10 11  1  0  0  0  0
 11 12  1  0  0  0  0
 11 32  1  0  0  0  0
 12 13  1  0  0  0  0
 12 14  2  0  0  0  0
 13 15  1  0  0  0  0
 13 16  1  0  0  0  0
 14 17  1  0  0  0  0
 14 33  1  0  0  0  0
 15 18  2  0  0  0  0
 16 19  1  0  0  0  0
 16 20  2  0  0  0  0
 17 21  1  0  0  0  0
 17 19  2  0  0  0  0
 18 22  1  0  0  0  0
 18 20  1  0  0  0  0
 21 34  1  0  0  0  0
 21 35  1  0  0  0  0
 21 36  1  0  0  0  0
 22 23  1  0  0  0  0
 22 24  1  0  0  0  0
 22 25  1  0  0  0  0
 25 26  1  0  0  0  0
 25 37  1  0  0  0  0
 25 38  1  0  0  0  0
 26 27  3  0  0  0  0
M  END
>  <ID>
486

>  <Parent ID>
379

>  <Generation>
4

>  <Parent Generation>
3

>  <Child No>
2

>  <Fitness>
0.97152

>  <SkelSpheres sim score>
0.94927

>  <FragFp sim score>
0.99429

$$$$
Compound 49
 OpenBabel11072204213D

 43 45  0  0  0  0  0  0  0  0999 V2000
    2.7944   -0.1583   -1.3482 F   0  0  0  0  0  0  0  0  0  0  0  0
    2.3252   -0.1142   -0.0652 C   0  0  0  0  0  0  0  0  0  0  0  0
    0.9632   -0.0443   -0.1694 F   0  0  0  0  0  0  0  0  0  0  0  0
    2.7333   -1.3596    0.6963 C   0  0  0  0  0  0  0  0  0  0  0  0
    2.8208    1.1809    0.5817 C   0  0  0  0  0  0  0  0  0  0  0  0
    2.4229   -2.6074    0.2984 N   0  0  0  0  0  0  0  0  0  0  0  0
    3.4440   -1.3016    1.8750 N   0  0  0  0  0  0  0  0  0  0  0  0
    2.3770    2.4173   -0.1852 C   0  0  0  0  0  0  0  0  0  0  0  0
    2.9425   -3.3712    1.2967 N   0  0  0  0  0  0  0  0  0  0  0  0
    3.5721   -2.5565    2.2395 C   0  0  0  0  0  0  0  0  0  0  0  0
    2.8644   -4.7685    1.4645 C   0  0  0  0  0  0  0  0  0  0  0  0
    4.1826   -3.0699    3.3450 N   0  0  0  0  0  0  0  0  0  0  0  0
    2.1894   -5.5122    0.4897 N   0  0  0  0  0  0  0  0  0  0  0  0
    3.4453   -5.3049    2.5541 C   0  0  0  0  0  0  0  0  0  0  0  0
    4.1284   -4.3603    3.4901 C   0  0  0  0  0  0  0  0  0  0  0  0
    1.0504   -6.3040    0.7992 C   0  0  0  0  0  0  0  0  0  0  0  0
    4.8014   -4.9774    4.6899 C   0  0  0  0  0  0  0  0  0  0  0  0
    0.1774   -5.9854    1.8475 C   0  0  0  0  0  0  0  0  0  0  0  0
    0.7111   -7.3611   -0.0521 C   0  0  0  0  0  0  0  0  0  0  0  0
   -0.9724   -6.7453    2.0790 C   0  0  0  0  0  0  0  0  0  0  0  0
   -0.4370   -8.1291    0.1798 C   0  0  0  0  0  0  0  0  0  0  0  0
   -1.2875   -7.8322    1.2540 C   0  0  0  0  0  0  0  0  0  0  0  0
   -2.5189   -8.6681    1.5308 C   0  0  0  0  0  0  0  0  0  0  0  0
   -3.5156   -7.9410    2.1181 F   0  0  0  0  0  0  0  0  0  0  0  0
   -3.0695   -9.1787    0.3914 F   0  0  0  0  0  0  0  0  0  0  0  0
   -2.1978   -9.8339    2.4537 C   0  0  0  0  0  0  0  0  0  0  0  0
    3.9168    1.1759    0.6329 H   0  0  0  0  0  0  0  0  0  0  0  0
    2.4413    1.2562    1.6083 H   0  0  0  0  0  0  0  0  0  0  0  0
    2.7561    2.4015   -1.2111 H   0  0  0  0  0  0  0  0  0  0  0  0
    2.7578    3.3207    0.3025 H   0  0  0  0  0  0  0  0  0  0  0  0
    1.2853    2.4880   -0.2218 H   0  0  0  0  0  0  0  0  0  0  0  0
    1.9369   -4.8988   -0.2978 H   0  0  0  0  0  0  0  0  0  0  0  0
    3.4423   -6.3649    2.7693 H   0  0  0  0  0  0  0  0  0  0  0  0
    5.2965   -4.2088    5.2906 H   0  0  0  0  0  0  0  0  0  0  0  0
    5.5506   -5.7013    4.3566 H   0  0  0  0  0  0  0  0  0  0  0  0
    4.0561   -5.4852    5.3083 H   0  0  0  0  0  0  0  0  0  0  0  0
    0.3647   -5.1281    2.4881 H   0  0  0  0  0  0  0  0  0  0  0  0
    1.3505   -7.6036   -0.8983 H   0  0  0  0  0  0  0  0  0  0  0  0
   -1.6334   -6.4706    2.8996 H   0  0  0  0  0  0  0  0  0  0  0  0
   -0.6720   -8.9531   -0.4929 H   0  0  0  0  0  0  0  0  0  0  0  0
   -1.7728   -9.4893    3.4026 H   0  0  0  0  0  0  0  0  0  0  0  0
   -1.4949  -10.5309    1.9863 H   0  0  0  0  0  0  0  0  0  0  0  0
   -3.1121  -10.3901    2.6857 H   0  0  0  0  0  0  0  0  0  0  0  0
  1  2  1  0  0  0  0
  2  3  1  0  0  0  0
  2  4  1  0  0  0  0
  2  5  1  0  0  0  0
  4  6  2  0  0  0  0
  4  7  1  0  0  0  0
  5  8  1  0  0  0  0
  5 27  1  0  0  0  0
  5 28  1  0  0  0  0
  6  9  1  0  0  0  0
  7 10  2  0  0  0  0
  8 29  1  0  0  0  0
  8 30  1  0  0  0  0
  8 31  1  0  0  0  0
  9 11  1  0  0  0  0
  9 10  1  0  0  0  0
 10 12  1  0  0  0  0
 11 13  1  0  0  0  0
 11 14  2  0  0  0  0
 12 15  2  0  0  0  0
 13 16  1  0  0  0  0
 13 32  1  0  0  0  0
 14 15  1  0  0  0  0
 14 33  1  0  0  0  0
 15 17  1  0  0  0  0
 16 18  2  0  0  0  0
 16 19  1  0  0  0  0
 17 34  1  0  0  0  0
 17 35  1  0  0  0  0
 17 36  1  0  0  0  0
 18 20  1  0  0  0  0
 18 37  1  0  0  0  0
 19 21  2  0  0  0  0
 19 38  1  0  0  0  0
 20 22  2  0  0  0  0
 20 39  1  0  0  0  0
 21 22  1  0  0  0  0
 21 40  1  0  0  0  0
 22 23  1  0  0  0  0
 23 24  1  0  0  0  0
 23 25  1  0  0  0  0
 23 26  1  0  0  0  0
 26 41  1  0  0  0  0
 26 42  1  0  0  0  0
 26 43  1  0  0  0  0
M  END
>  <ID>
498

>  <Parent ID>
423

>  <Generation>
2

>  <Parent Generation>
1

>  <Child No>
1

>  <Fitness>
0.97926

>  <SkelSpheres sim score>
0.96998

>  <FragFp sim score>
0.98864

$$$$
Compound 50
 OpenBabel11072204213D

 46 48  0  0  0  0  0  0  0  0999 V2000
    4.3766   -0.4764    2.9639 F   0  0  0  0  0  0  0  0  0  0  0  0
    4.3051   -0.2590    1.6110 C   0  0  0  0  0  0  0  0  0  0  0  0
    5.5302    0.2556    1.2833 F   0  0  0  0  0  0  0  0  0  0  0  0
    4.0353   -1.5530    0.8686 C   0  0  0  0  0  0  0  0  0  0  0  0
    3.2736    0.8518    1.4113 C   0  0  0  0  0  0  0  0  0  0  0  0
    3.3654   -2.6062    1.4973 C   0  0  0  0  0  0  0  0  0  0  0  0
    4.5507   -1.7684   -0.4180 C   0  0  0  0  0  0  0  0  0  0  0  0
    3.0925    1.2940   -0.0314 C   0  0  0  0  0  0  0  0  0  0  0  0
    3.2957   -3.8652    0.8896 C   0  0  0  0  0  0  0  0  0  0  0  0
    4.4571   -3.0249   -1.0312 C   0  0  0  0  0  0  0  0  0  0  0  0
    3.8650   -4.1054   -0.3703 C   0  0  0  0  0  0  0  0  0  0  0  0
    3.8642   -5.3757   -1.0058 N   0  0  0  0  0  0  0  0  0  0  0  0
    3.1176   -6.4835   -0.6103 C   0  0  0  0  0  0  0  0  0  0  0  0
    3.6948   -7.7744   -0.7018 N   0  0  0  0  0  0  0  0  0  0  0  0
    1.8427   -6.4144   -0.1931 C   0  0  0  0  0  0  0  0  0  0  0  0
    4.9072   -8.1411   -1.2077 N   0  0  0  0  0  0  0  0  0  0  0  0
    2.9932   -8.9124   -0.2960 C   0  0  0  0  0  0  0  0  0  0  0  0
    1.2347   -7.6518    0.3637 C   0  0  0  0  0  0  0  0  0  0  0  0
    4.8593   -9.4849   -1.1286 C   0  0  0  0  0  0  0  0  0  0  0  0
    1.7651   -8.8361    0.2954 N   0  0  0  0  0  0  0  0  0  0  0  0
    3.7045   -9.9819   -0.5685 N   0  0  0  0  0  0  0  0  0  0  0  0
   -0.0660   -7.4824    1.1009 C   0  0  0  0  0  0  0  0  0  0  0  0
    5.9204  -10.4161   -1.6785 C   0  0  0  0  0  0  0  0  0  0  0  0
    6.9844   -9.7335   -2.1987 F   0  0  0  0  0  0  0  0  0  0  0  0
    6.4457  -11.1897   -0.6788 F   0  0  0  0  0  0  0  0  0  0  0  0
    5.3860  -11.3599   -2.7585 C   0  0  0  0  0  0  0  0  0  0  0  0
    4.8563  -10.6329   -3.9869 C   0  0  0  0  0  0  0  0  0  0  0  0
    3.6156    1.7205    1.9895 H   0  0  0  0  0  0  0  0  0  0  0  0
    2.3062    0.5631    1.8379 H   0  0  0  0  0  0  0  0  0  0  0  0
    2.9498   -2.4765    2.4957 H   0  0  0  0  0  0  0  0  0  0  0  0
    5.0727   -0.9667   -0.9376 H   0  0  0  0  0  0  0  0  0  0  0  0
    4.0519    1.3845   -0.5496 H   0  0  0  0  0  0  0  0  0  0  0  0
    2.5995    2.2711   -0.0657 H   0  0  0  0  0  0  0  0  0  0  0  0
    2.4635    0.5856   -0.5790 H   0  0  0  0  0  0  0  0  0  0  0  0
    2.8372   -4.6638    1.4650 H   0  0  0  0  0  0  0  0  0  0  0  0
    4.8763   -3.1584   -2.0260 H   0  0  0  0  0  0  0  0  0  0  0  0
    4.8031   -5.6335   -1.3287 H   0  0  0  0  0  0  0  0  0  0  0  0
    1.2731   -5.4907   -0.1744 H   0  0  0  0  0  0  0  0  0  0  0  0
   -0.3154   -6.4230    1.2209 H   0  0  0  0  0  0  0  0  0  0  0  0
    0.0290   -7.9239    2.0973 H   0  0  0  0  0  0  0  0  0  0  0  0
   -0.8682   -7.9796    0.5532 H   0  0  0  0  0  0  0  0  0  0  0  0
    4.5994  -12.0030   -2.3451 H   0  0  0  0  0  0  0  0  0  0  0  0
    6.1962  -12.0290   -3.0731 H   0  0  0  0  0  0  0  0  0  0  0  0
    4.0053   -9.9912   -3.7381 H   0  0  0  0  0  0  0  0  0  0  0  0
    4.5176  -11.3553   -4.7364 H   0  0  0  0  0  0  0  0  0  0  0  0
    5.6349  -10.0123   -4.4412 H   0  0  0  0  0  0  0  0  0  0  0  0
  1  2  1  0  0  0  0
  2  3  1  0  0  0  0
  2  4  1  0  0  0  0
  2  5  1  0  0  0  0
  4  6  2  0  0  0  0
  4  7  1  0  0  0  0
  5  8  1  0  0  0  0
  5 28  1  0  0  0  0
  5 29  1  0  0  0  0
  6  9  1  0  0  0  0
  6 30  1  0  0  0  0
  7 10  2  0  0  0  0
  7 31  1  0  0  0  0
  8 32  1  0  0  0  0
  8 33  1  0  0  0  0
  8 34  1  0  0  0  0
  9 11  2  0  0  0  0
  9 35  1  0  0  0  0
 10 11  1  0  0  0  0
 10 36  1  0  0  0  0
 11 12  1  0  0  0  0
 12 13  1  0  0  0  0
 12 37  1  0  0  0  0
 13 14  1  0  0  0  0
 13 15  2  0  0  0  0
 14 16  1  0  0  0  0
 14 17  1  0  0  0  0
 15 18  1  0  0  0  0
 15 38  1  0  0  0  0
 16 19  2  0  0  0  0
 17 20  1  0  0  0  0
 17 21  2  0  0  0  0
 18 22  1  0  0  0  0
 18 20  2  0  0  0  0
 19 23  1  0  0  0  0
 19 21  1  0  0  0  0
 22 39  1  0  0  0  0
 22 40  1  0  0  0  0
 22 41  1  0  0  0  0
 23 24  1  0  0  0  0
 23 25  1  0  0  0  0
 23 26  1  0  0  0  0
 26 27  1  0  0  0  0
 26 42  1  0  0  0  0
 26 43  1  0  0  0  0
 27 44  1  0  0  0  0
 27 45  1  0  0  0  0
 27 46  1  0  0  0  0
M  END
>  <ID>
499

>  <Parent ID>
423

>  <Generation>
2

>  <Parent Generation>
1

>  <Child No>
8

>  <Fitness>
0.94521

>  <SkelSpheres sim score>
0.91396

>  <FragFp sim score>
0.97753

$$$$
Compound 51
 OpenBabel11072204213D

 39 41  0  0  0  0  0  0  0  0999 V2000
    7.5927    0.7524   -0.6830 F   0  0  0  0  0  0  0  0  0  0  0  0
    6.8189    1.8554   -0.4781 C   0  0  0  0  0  0  0  0  0  0  0  0
    6.2760    1.7068    0.7612 F   0  0  0  0  0  0  0  0  0  0  0  0
    7.6858    2.9023   -0.3868 F   0  0  0  0  0  0  0  0  0  0  0  0
    5.7812    2.0706   -1.5523 C   0  0  0  0  0  0  0  0  0  0  0  0
    5.6844    1.1925   -2.6349 C   0  0  0  0  0  0  0  0  0  0  0  0
    4.9221    3.1766   -1.5102 C   0  0  0  0  0  0  0  0  0  0  0  0
    4.8164    1.4691   -3.6936 C   0  0  0  0  0  0  0  0  0  0  0  0
    4.0472    3.4445   -2.5723 C   0  0  0  0  0  0  0  0  0  0  0  0
    4.0317    2.6314   -3.7133 C   0  0  0  0  0  0  0  0  0  0  0  0
    3.1954    2.9983   -4.8094 N   0  0  0  0  0  0  0  0  0  0  0  0
    3.2610    2.3591   -6.0507 C   0  0  0  0  0  0  0  0  0  0  0  0
    3.6716    3.0997   -7.1824 N   0  0  0  0  0  0  0  0  0  0  0  0
    2.9462    1.0624   -6.2336 C   0  0  0  0  0  0  0  0  0  0  0  0
    3.9477    4.4317   -7.2928 N   0  0  0  0  0  0  0  0  0  0  0  0
    3.8290    2.4882   -8.4310 C   0  0  0  0  0  0  0  0  0  0  0  0
    3.2456    0.4777   -7.5730 C   0  0  0  0  0  0  0  0  0  0  0  0
    4.2491    4.5612   -8.5964 C   0  0  0  0  0  0  0  0  0  0  0  0
    3.6439    1.1509   -8.6106 N   0  0  0  0  0  0  0  0  0  0  0  0
    4.1788    3.3922   -9.3154 N   0  0  0  0  0  0  0  0  0  0  0  0
    3.1222   -1.0186   -7.6996 C   0  0  0  0  0  0  0  0  0  0  0  0
    4.5763    5.8729   -9.2788 C   0  0  0  0  0  0  0  0  0  0  0  0
    4.0050    6.9312   -8.6292 F   0  0  0  0  0  0  0  0  0  0  0  0
    5.9234    6.1061   -9.2312 F   0  0  0  0  0  0  0  0  0  0  0  0
    4.1615    5.9237  -10.7381 C   0  0  0  0  0  0  0  0  0  0  0  0
    2.6820    5.7503  -10.8661 C   0  0  0  0  0  0  0  0  0  0  0  0
    1.9533    6.5779  -11.4049 O   0  0  0  0  0  0  0  0  0  0  0  0
    6.3106    0.3027   -2.6843 H   0  0  0  0  0  0  0  0  0  0  0  0
    4.9510    3.8563   -0.6590 H   0  0  0  0  0  0  0  0  0  0  0  0
    4.8214    0.7665   -4.5196 H   0  0  0  0  0  0  0  0  0  0  0  0
    3.4020    4.3186   -2.5128 H   0  0  0  0  0  0  0  0  0  0  0  0
    3.2335    4.0182   -4.9242 H   0  0  0  0  0  0  0  0  0  0  0  0
    2.5721    0.4304   -5.4425 H   0  0  0  0  0  0  0  0  0  0  0  0
    2.9036   -1.4840   -6.7344 H   0  0  0  0  0  0  0  0  0  0  0  0
    4.0673   -1.4257   -8.0728 H   0  0  0  0  0  0  0  0  0  0  0  0
    2.3213   -1.2589   -8.4051 H   0  0  0  0  0  0  0  0  0  0  0  0
    4.6590    5.1468  -11.3284 H   0  0  0  0  0  0  0  0  0  0  0  0
    4.4364    6.8911  -11.1726 H   0  0  0  0  0  0  0  0  0  0  0  0
    2.2562    4.7967  -10.5012 H   0  0  0  0  0  0  0  0  0  0  0  0
  1  2  1  0  0  0  0
  2  3  1  0  0  0  0
  2  4  1  0  0  0  0
  2  5  1  0  0  0  0
  5  6  2  0  0  0  0
  5  7  1  0  0  0  0
  6  8  1  0  0  0  0
  6 28  1  0  0  0  0
  7  9  2  0  0  0  0
  7 29  1  0  0  0  0
  8 10  2  0  0  0  0
  8 30  1  0  0  0  0
  9 10  1  0  0  0  0
  9 31  1  0  0  0  0
 10 11  1  0  0  0  0
 11 12  1  0  0  0  0
 11 32  1  0  0  0  0
 12 13  1  0  0  0  0
 12 14  2  0  0  0  0
 13 15  1  0  0  0  0
 13 16  1  0  0  0  0
 14 17  1  0  0  0  0
 14 33  1  0  0  0  0
 15 18  2  0  0  0  0
 16 19  1  0  0  0  0
 16 20  2  0  0  0  0
 17 21  1  0  0  0  0
 17 19  2  0  0  0  0
 18 22  1  0  0  0  0
 18 20  1  0  0  0  0
 21 34  1  0  0  0  0
 21 35  1  0  0  0  0
 21 36  1  0  0  0  0
 22 23  1  0  0  0  0
 22 24  1  0  0  0  0
 22 25  1  0  0  0  0
 25 26  1  0  0  0  0
 25 37  1  0  0  0  0
 25 38  1  0  0  0  0
 26 27  2  0  0  0  0
 26 39  1  0  0  0  0
M  END
>  <ID>
520

>  <Parent ID>
1

>  <Generation>
1

>  <Parent Generation>
0

>  <Child No>
6

>  <Fitness>
0.95265

>  <SkelSpheres sim score>
0.94927

>  <FragFp sim score>
0.95604

$$$$
Compound 52
 OpenBabel11072204213D

 41 43  0  0  0  0  0  0  0  0999 V2000
    7.6524    0.6734   -0.7461 F   0  0  0  0  0  0  0  0  0  0  0  0
    6.8967    1.7876   -0.5281 C   0  0  0  0  0  0  0  0  0  0  0  0
    6.3639    1.6420    0.7138 F   0  0  0  0  0  0  0  0  0  0  0  0
    7.7791    2.8218   -0.4428 F   0  0  0  0  0  0  0  0  0  0  0  0
    5.8508    2.0194   -1.5908 C   0  0  0  0  0  0  0  0  0  0  0  0
    5.7330    1.1497   -2.6781 C   0  0  0  0  0  0  0  0  0  0  0  0
    5.0032    3.1350   -1.5345 C   0  0  0  0  0  0  0  0  0  0  0  0
    4.8523    1.4375   -3.7235 C   0  0  0  0  0  0  0  0  0  0  0  0
    4.1155    3.4150   -2.5836 C   0  0  0  0  0  0  0  0  0  0  0  0
    4.0746    2.6051   -3.7263 C   0  0  0  0  0  0  0  0  0  0  0  0
    3.2217    2.9798   -4.8072 N   0  0  0  0  0  0  0  0  0  0  0  0
    3.2660    2.3411   -6.0515 C   0  0  0  0  0  0  0  0  0  0  0  0
    3.6736    3.0823   -7.1832 N   0  0  0  0  0  0  0  0  0  0  0  0
    2.9399    1.0483   -6.2353 C   0  0  0  0  0  0  0  0  0  0  0  0
    3.9523    4.4130   -7.2957 N   0  0  0  0  0  0  0  0  0  0  0  0
    3.8226    2.4671   -8.4320 C   0  0  0  0  0  0  0  0  0  0  0  0
    3.2295    0.4601   -7.5727 C   0  0  0  0  0  0  0  0  0  0  0  0
    4.2571    4.5364   -8.6016 C   0  0  0  0  0  0  0  0  0  0  0  0
    3.6254    1.1325   -8.6133 N   0  0  0  0  0  0  0  0  0  0  0  0
    4.1869    3.3649   -9.3148 N   0  0  0  0  0  0  0  0  0  0  0  0
    3.1020   -1.0365   -7.7014 C   0  0  0  0  0  0  0  0  0  0  0  0
    4.5718    5.8457   -9.2968 C   0  0  0  0  0  0  0  0  0  0  0  0
    3.9718    6.9041   -8.6718 F   0  0  0  0  0  0  0  0  0  0  0  0
    5.9119    6.1046   -9.2506 F   0  0  0  0  0  0  0  0  0  0  0  0
    4.1449    5.8724  -10.7638 C   0  0  0  0  0  0  0  0  0  0  0  0
    2.6382    5.6906  -10.9348 C   0  0  0  0  0  0  0  0  0  0  0  0
    2.2724    5.7378  -12.4093 C   0  0  0  0  0  0  0  0  0  0  0  0
    1.9689    5.7770  -13.6326 N   0  0  0  0  0  0  0  0  0  0  0  0
    6.3503    0.2544   -2.7407 H   0  0  0  0  0  0  0  0  0  0  0  0
    5.0501    3.8105   -0.6813 H   0  0  0  0  0  0  0  0  0  0  0  0
    4.8405    0.7395   -4.5526 H   0  0  0  0  0  0  0  0  0  0  0  0
    3.4793    4.2947   -2.5110 H   0  0  0  0  0  0  0  0  0  0  0  0
    3.2638    3.9979   -4.9204 H   0  0  0  0  0  0  0  0  0  0  0  0
    2.5680    0.4174   -5.4395 H   0  0  0  0  0  0  0  0  0  0  0  0
    2.8789   -1.4963   -6.7355 H   0  0  0  0  0  0  0  0  0  0  0  0
    4.0485   -1.4440   -8.0710 H   0  0  0  0  0  0  0  0  0  0  0  0
    2.3045   -1.2732   -8.4059 H   0  0  0  0  0  0  0  0  0  0  0  0
    4.6910    5.1074  -11.3305 H   0  0  0  0  0  0  0  0  0  0  0  0
    4.4441    6.8364  -11.1963 H   0  0  0  0  0  0  0  0  0  0  0  0
    2.0943    6.4858  -10.4127 H   0  0  0  0  0  0  0  0  0  0  0  0
    2.2934    4.7326  -10.5340 H   0  0  0  0  0  0  0  0  0  0  0  0
  1  2  1  0  0  0  0
  2  3  1  0  0  0  0
  2  4  1  0  0  0  0
  2  5  1  0  0  0  0
  5  6  2  0  0  0  0
  5  7  1  0  0  0  0
  6  8  1  0  0  0  0
  6 29  1  0  0  0  0
  7  9  2  0  0  0  0
  7 30  1  0  0  0  0
  8 10  2  0  0  0  0
  8 31  1  0  0  0  0
  9 10  1  0  0  0  0
  9 32  1  0  0  0  0
 10 11  1  0  0  0  0
 11 12  1  0  0  0  0
 11 33  1  0  0  0  0
 12 13  1  0  0  0  0
 12 14  2  0  0  0  0
 13 15  1  0  0  0  0
 13 16  1  0  0  0  0
 14 17  1  0  0  0  0
 14 34  1  0  0  0  0
 15 18  2  0  0  0  0
 16 19  1  0  0  0  0
 16 20  2  0  0  0  0
 17 21  1  0  0  0  0
 17 19  2  0  0  0  0
 18 22  1  0  0  0  0
 18 20  1  0  0  0  0
 21 35  1  0  0  0  0
 21 36  1  0  0  0  0
 21 37  1  0  0  0  0
 22 23  1  0  0  0  0
 22 24  1  0  0  0  0
 22 25  1  0  0  0  0
 25 26  1  0  0  0  0
 25 38  1  0  0  0  0
 25 39  1  0  0  0  0
 26 27  1  0  0  0  0
 26 40  1  0  0  0  0
 26 41  1  0  0  0  0
 27 28  3  0  0  0  0
M  END
>  <ID>
534

>  <Parent ID>
3

>  <Generation>
2

>  <Parent Generation>
1

>  <Child No>
4

>  <Fitness>
0.96283

>  <SkelSpheres sim score>
0.94302

>  <FragFp sim score>
0.98305

$$$$
Compound 53
 OpenBabel11072204213D

 42 44  0  0  0  0  0  0  0  0999 V2000
    5.6375   -0.8538    0.7067 F   0  0  0  0  0  0  0  0  0  0  0  0
    4.9953   -0.1378   -0.2557 C   0  0  0  0  0  0  0  0  0  0  0  0
    4.0571    0.6057    0.3941 F   0  0  0  0  0  0  0  0  0  0  0  0
    5.9127    0.7495   -0.7323 F   0  0  0  0  0  0  0  0  0  0  0  0
    4.4066   -0.9920   -1.3523 C   0  0  0  0  0  0  0  0  0  0  0  0
    4.5324   -2.3856   -1.3201 C   0  0  0  0  0  0  0  0  0  0  0  0
    3.7636   -0.3981   -2.4487 C   0  0  0  0  0  0  0  0  0  0  0  0
    4.0692   -3.1625   -2.3837 C   0  0  0  0  0  0  0  0  0  0  0  0
    3.3025   -1.1798   -3.5141 C   0  0  0  0  0  0  0  0  0  0  0  0
    3.4522   -2.5701   -3.4952 C   0  0  0  0  0  0  0  0  0  0  0  0
    3.1132   -3.3130   -4.6627 N   0  0  0  0  0  0  0  0  0  0  0  0
    2.8646   -4.6879   -4.5939 C   0  0  0  0  0  0  0  0  0  0  0  0
    3.7099   -5.5600   -5.3122 N   0  0  0  0  0  0  0  0  0  0  0  0
    1.8776   -5.2279   -3.8591 C   0  0  0  0  0  0  0  0  0  0  0  0
    4.7547   -5.2523   -6.1259 N   0  0  0  0  0  0  0  0  0  0  0  0
    3.5594   -6.9458   -5.2333 C   0  0  0  0  0  0  0  0  0  0  0  0
    1.8087   -6.7188   -3.8161 C   0  0  0  0  0  0  0  0  0  0  0  0
    5.2017   -6.4665   -6.4951 C   0  0  0  0  0  0  0  0  0  0  0  0
    2.5934   -7.5286   -4.4638 N   0  0  0  0  0  0  0  0  0  0  0  0
    4.4797   -7.5183   -5.9746 N   0  0  0  0  0  0  0  0  0  0  0  0
    0.7281   -7.3001   -2.9050 C   0  0  0  0  0  0  0  0  0  0  0  0
    6.3606   -6.6905   -7.4444 C   0  0  0  0  0  0  0  0  0  0  0  0
   -0.0512   -6.5341   -2.3475 O   0  0  0  0  0  0  0  0  0  0  0  0
    0.6955   -8.7833   -2.6818 C   0  0  0  0  0  0  0  0  0  0  0  0
    6.9153   -5.5121   -7.8623 F   0  0  0  0  0  0  0  0  0  0  0  0
    7.3738   -7.3566   -6.8101 F   0  0  0  0  0  0  0  0  0  0  0  0
    5.9772   -7.5003   -8.6825 C   0  0  0  0  0  0  0  0  0  0  0  0
    4.9183   -6.8224   -9.5406 C   0  0  0  0  0  0  0  0  0  0  0  0
    5.0225   -2.8778   -0.4809 H   0  0  0  0  0  0  0  0  0  0  0  0
    3.6429    0.6837   -2.4898 H   0  0  0  0  0  0  0  0  0  0  0  0
    4.2335   -4.2356   -2.3385 H   0  0  0  0  0  0  0  0  0  0  0  0
    2.8283   -0.6952   -4.3651 H   0  0  0  0  0  0  0  0  0  0  0  0
    3.8497   -3.1317   -5.3590 H   0  0  0  0  0  0  0  0  0  0  0  0
    1.1742   -4.6340   -3.2898 H   0  0  0  0  0  0  0  0  0  0  0  0
    1.3543   -9.3265   -3.3600 H   0  0  0  0  0  0  0  0  0  0  0  0
   -0.3253   -9.1376   -2.8474 H   0  0  0  0  0  0  0  0  0  0  0  0
    0.9979   -8.9940   -1.6522 H   0  0  0  0  0  0  0  0  0  0  0  0
    5.6306   -8.4985   -8.3892 H   0  0  0  0  0  0  0  0  0  0  0  0
    6.8755   -7.6524   -9.2934 H   0  0  0  0  0  0  0  0  0  0  0  0
    3.9778   -6.6996   -8.9946 H   0  0  0  0  0  0  0  0  0  0  0  0
    4.7096   -7.4268  -10.4288 H   0  0  0  0  0  0  0  0  0  0  0  0
    5.2552   -5.8355   -9.8728 H   0  0  0  0  0  0  0  0  0  0  0  0
  1  2  1  0  0  0  0
  2  3  1  0  0  0  0
  2  4  1  0  0  0  0
  2  5  1  0  0  0  0
  5  6  2  0  0  0  0
  5  7  1  0  0  0  0
  6  8  1  0  0  0  0
  6 29  1  0  0  0  0
  7  9  2  0  0  0  0
  7 30  1  0  0  0  0
  8 10  2  0  0  0  0
  8 31  1  0  0  0  0
  9 10  1  0  0  0  0
  9 32  1  0  0  0  0
 10 11  1  0  0  0  0
 11 12  1  0  0  0  0
 11 33  1  0  0  0  0
 12 13  1  0  0  0  0
 12 14  2  0  0  0  0
 13 15  1  0  0  0  0
 13 16  1  0  0  0  0
 14 17  1  0  0  0  0
 14 34  1  0  0  0  0
 15 18  2  0  0  0  0
 16 19  1  0  0  0  0
 16 20  2  0  0  0  0
 17 21  1  0  0  0  0
 17 19  2  0  0  0  0
 18 22  1  0  0  0  0
 18 20  1  0  0  0  0
 21 23  2  0  0  0  0
 21 24  1  0  0  0  0
 22 25  1  0  0  0  0
 22 26  1  0  0  0  0
 22 27  1  0  0  0  0
 24 35  1  0  0  0  0
 24 36  1  0  0  0  0
 24 37  1  0  0  0  0
 27 28  1  0  0  0  0
 27 38  1  0  0  0  0
 27 39  1  0  0  0  0
 28 40  1  0  0  0  0
 28 41  1  0  0  0  0
 28 42  1  0  0  0  0
M  END
>  <ID>
539

>  <Parent ID>
54

>  <Generation>
2

>  <Parent Generation>
1

>  <Child No>
7

>  <Fitness>
0.94797

>  <SkelSpheres sim score>
0.93996

>  <FragFp sim score>
0.95604

$$$$
Compound 54
 OpenBabel11072204213D

 42 44  0  0  0  0  0  0  0  0999 V2000
    5.6635   -0.8692    0.7003 F   0  0  0  0  0  0  0  0  0  0  0  0
    5.0246   -0.1486   -0.2643 C   0  0  0  0  0  0  0  0  0  0  0  0
    4.0929    0.6013    0.3847 F   0  0  0  0  0  0  0  0  0  0  0  0
    5.9495    0.7314   -0.7405 F   0  0  0  0  0  0  0  0  0  0  0  0
    4.4310   -1.0004   -1.3594 C   0  0  0  0  0  0  0  0  0  0  0  0
    4.5417   -2.3952   -1.3247 C   0  0  0  0  0  0  0  0  0  0  0  0
    3.7946   -0.4025   -2.4578 C   0  0  0  0  0  0  0  0  0  0  0  0
    4.0713   -3.1695   -2.3875 C   0  0  0  0  0  0  0  0  0  0  0  0
    3.3274   -1.1814   -3.5229 C   0  0  0  0  0  0  0  0  0  0  0  0
    3.4633   -2.5732   -3.5023 C   0  0  0  0  0  0  0  0  0  0  0  0
    3.1187   -3.3150   -4.6701 N   0  0  0  0  0  0  0  0  0  0  0  0
    2.8742   -4.6904   -4.6006 C   0  0  0  0  0  0  0  0  0  0  0  0
    3.7163   -5.5654   -5.3121 N   0  0  0  0  0  0  0  0  0  0  0  0
    1.8838   -5.2264   -3.8680 C   0  0  0  0  0  0  0  0  0  0  0  0
    4.7547   -5.2608   -6.1368 N   0  0  0  0  0  0  0  0  0  0  0  0
    3.5724   -6.9521   -5.2224 C   0  0  0  0  0  0  0  0  0  0  0  0
    1.8296   -6.7224   -3.7913 C   0  0  0  0  0  0  0  0  0  0  0  0
    5.2035   -6.4766   -6.4979 C   0  0  0  0  0  0  0  0  0  0  0  0
    2.6183   -7.5331   -4.4374 N   0  0  0  0  0  0  0  0  0  0  0  0
    4.4893   -7.5273   -5.9666 N   0  0  0  0  0  0  0  0  0  0  0  0
    0.7800   -7.3161   -2.8556 C   0  0  0  0  0  0  0  0  0  0  0  0
    6.3610   -6.7051   -7.4465 C   0  0  0  0  0  0  0  0  0  0  0  0
    1.0108   -6.8172   -1.4960 N   0  0  0  0  0  0  0  0  0  0  0  0
    6.9306   -5.5299   -7.8528 F   0  0  0  0  0  0  0  0  0  0  0  0
    7.3657   -7.3881   -6.8163 F   0  0  0  0  0  0  0  0  0  0  0  0
    5.9728   -7.5003   -8.6926 C   0  0  0  0  0  0  0  0  0  0  0  0
    4.9289   -6.8021   -9.5525 C   0  0  0  0  0  0  0  0  0  0  0  0
    5.0248   -2.8911   -0.4839 H   0  0  0  0  0  0  0  0  0  0  0  0
    3.6842    0.6803   -2.5008 H   0  0  0  0  0  0  0  0  0  0  0  0
    4.2205   -4.2450   -2.3382 H   0  0  0  0  0  0  0  0  0  0  0  0
    2.8593   -0.6939   -4.3753 H   0  0  0  0  0  0  0  0  0  0  0  0
    3.8545   -3.1378   -5.3671 H   0  0  0  0  0  0  0  0  0  0  0  0
    1.1816   -4.6442   -3.2890 H   0  0  0  0  0  0  0  0  0  0  0  0
    0.8395   -8.4091   -2.8675 H   0  0  0  0  0  0  0  0  0  0  0  0
   -0.2122   -7.0141   -3.2040 H   0  0  0  0  0  0  0  0  0  0  0  0
    1.8886   -7.2063   -1.1468 H   0  0  0  0  0  0  0  0  0  0  0  0
    0.2856   -7.1852   -0.8804 H   0  0  0  0  0  0  0  0  0  0  0  0
    5.6105   -8.4955   -8.4087 H   0  0  0  0  0  0  0  0  0  0  0  0
    6.8725   -7.6604   -9.2992 H   0  0  0  0  0  0  0  0  0  0  0  0
    3.9854   -6.6741   -9.0131 H   0  0  0  0  0  0  0  0  0  0  0  0
    4.7212   -7.3954  -10.4486 H   0  0  0  0  0  0  0  0  0  0  0  0
    5.2794   -5.8159   -9.8726 H   0  0  0  0  0  0  0  0  0  0  0  0
  1  2  1  0  0  0  0
  2  3  1  0  0  0  0
  2  4  1  0  0  0  0
  2  5  1  0  0  0  0
  5  6  2  0  0  0  0
  5  7  1  0  0  0  0
  6  8  1  0  0  0  0
  6 28  1  0  0  0  0
  7  9  2  0  0  0  0
  7 29  1  0  0  0  0
  8 10  2  0  0  0  0
  8 30  1  0  0  0  0
  9 10  1  0  0  0  0
  9 31  1  0  0  0  0
 10 11  1  0  0  0  0
 11 12  1  0  0  0  0
 11 32  1  0  0  0  0
 12 13  1  0  0  0  0
 12 14  2  0  0  0  0
 13 15  1  0  0  0  0
 13 16  1  0  0  0  0
 14 17  1  0  0  0  0
 14 33  1  0  0  0  0
 15 18  2  0  0  0  0
 16 19  1  0  0  0  0
 16 20  2  0  0  0  0
 17 21  1  0  0  0  0
 17 19  2  0  0  0  0
 18 22  1  0  0  0  0
 18 20  1  0  0  0  0
 21 23  1  0  0  0  0
 21 34  1  0  0  0  0
 21 35  1  0  0  0  0
 22 24  1  0  0  0  0
 22 25  1  0  0  0  0
 22 26  1  0  0  0  0
 23 36  1  0  0  0  0
 23 37  1  0  0  0  0
 26 27  1  0  0  0  0
 26 38  1  0  0  0  0
 26 39  1  0  0  0  0
 27 40  1  0  0  0  0
 27 41  1  0  0  0  0
 27 42  1  0  0  0  0
M  END
>  <ID>
556

>  <Parent ID>
243

>  <Generation>
2

>  <Parent Generation>
1

>  <Child No>
3

>  <Fitness>
0.96601

>  <SkelSpheres sim score>
0.94927

>  <FragFp sim score>
0.98305

$$$$
Compound 55
 OpenBabel11072204213D

 40 42  0  0  0  0  0  0  0  0999 V2000
    6.8742    1.4526    1.1719 Cl  0  0  0  0  0  0  0  0  0  0  0  0
    5.4921    0.6263    0.4089 C   0  0  0  0  0  0  0  0  0  0  0  0
    5.9821   -0.3212   -0.6720 C   0  0  0  0  0  0  0  0  0  0  0  0
    4.8039   -1.0468   -1.3054 C   0  0  0  0  0  0  0  0  0  0  0  0
    4.1486   -1.7369   -0.3246 F   0  0  0  0  0  0  0  0  0  0  0  0
    3.9089   -0.1158   -1.7519 F   0  0  0  0  0  0  0  0  0  0  0  0
    5.2338   -1.9530   -2.4369 C   0  0  0  0  0  0  0  0  0  0  0  0
    5.1066   -3.2918   -2.4246 N   0  0  0  0  0  0  0  0  0  0  0  0
    5.8069   -1.4459   -3.5801 N   0  0  0  0  0  0  0  0  0  0  0  0
    5.5555   -3.6378   -3.6635 N   0  0  0  0  0  0  0  0  0  0  0  0
    5.9980   -2.4988   -4.3417 C   0  0  0  0  0  0  0  0  0  0  0  0
    5.5833   -4.9110   -4.2667 C   0  0  0  0  0  0  0  0  0  0  0  0
    6.5036   -2.5617   -5.6065 N   0  0  0  0  0  0  0  0  0  0  0  0
    5.0802   -5.9915   -3.5407 N   0  0  0  0  0  0  0  0  0  0  0  0
    6.1024   -5.0071   -5.5049 C   0  0  0  0  0  0  0  0  0  0  0  0
    6.5492   -3.7391   -6.1544 C   0  0  0  0  0  0  0  0  0  0  0  0
    3.9761   -6.7834   -3.9571 C   0  0  0  0  0  0  0  0  0  0  0  0
    7.0688   -3.8626   -7.5640 C   0  0  0  0  0  0  0  0  0  0  0  0
    3.2571   -6.5428   -5.1362 C   0  0  0  0  0  0  0  0  0  0  0  0
    3.6006   -7.8772   -3.1672 C   0  0  0  0  0  0  0  0  0  0  0  0
    2.1775   -7.3507   -5.5032 C   0  0  0  0  0  0  0  0  0  0  0  0
    2.5176   -8.6884   -3.5301 C   0  0  0  0  0  0  0  0  0  0  0  0
    1.7885   -8.4276   -4.6989 C   0  0  0  0  0  0  0  0  0  0  0  0
    0.6074   -9.2890   -5.0738 C   0  0  0  0  0  0  0  0  0  0  0  0
   -0.0148   -8.8892   -6.2186 F   0  0  0  0  0  0  0  0  0  0  0  0
    0.9531  -10.5904   -5.2733 F   0  0  0  0  0  0  0  0  0  0  0  0
   -0.3556   -9.2986   -4.1114 F   0  0  0  0  0  0  0  0  0  0  0  0
    4.8366    1.4000   -0.0021 H   0  0  0  0  0  0  0  0  0  0  0  0
    4.9530    0.0948    1.1985 H   0  0  0  0  0  0  0  0  0  0  0  0
    6.6759   -1.0524   -0.2390 H   0  0  0  0  0  0  0  0  0  0  0  0
    6.5299    0.2473   -1.4340 H   0  0  0  0  0  0  0  0  0  0  0  0
    4.9608   -5.7458   -2.5507 H   0  0  0  0  0  0  0  0  0  0  0  0
    6.1817   -5.9413   -6.0451 H   0  0  0  0  0  0  0  0  0  0  0  0
    7.4000   -2.8899   -7.9391 H   0  0  0  0  0  0  0  0  0  0  0  0
    6.2723   -4.2393   -8.2128 H   0  0  0  0  0  0  0  0  0  0  0  0
    7.9118   -4.5582   -7.5858 H   0  0  0  0  0  0  0  0  0  0  0  0
    3.4976   -5.7055   -5.7836 H   0  0  0  0  0  0  0  0  0  0  0  0
    4.1510   -8.1095   -2.2586 H   0  0  0  0  0  0  0  0  0  0  0  0
    1.6336   -7.1216   -6.4185 H   0  0  0  0  0  0  0  0  0  0  0  0
    2.2430   -9.5266   -2.8910 H   0  0  0  0  0  0  0  0  0  0  0  0
  1  2  1  0  0  0  0
  2  3  1  0  0  0  0
  2 28  1  0  0  0  0
  2 29  1  0  0  0  0
  3  4  1  0  0  0  0
  3 30  1  0  0  0  0
  3 31  1  0  0  0  0
  4  5  1  0  0  0  0
  4  6  1  0  0  0  0
  4  7  1  0  0  0  0
  7  8  2  0  0  0  0
  7  9  1  0  0  0  0
  8 10  1  0  0  0  0
  9 11  2  0  0  0  0
 10 12  1  0  0  0  0
 10 11  1  0  0  0  0
 11 13  1  0  0  0  0
 12 14  1  0  0  0  0
 12 15  2  0  0  0  0
 13 16  2  0  0  0  0
 14 17  1  0  0  0  0
 14 32  1  0  0  0  0
 15 16  1  0  0  0  0
 15 33  1  0  0  0  0
 16 18  1  0  0  0  0
 17 19  2  0  0  0  0
 17 20  1  0  0  0  0
 18 34  1  0  0  0  0
 18 35  1  0  0  0  0
 18 36  1  0  0  0  0
 19 21  1  0  0  0  0
 19 37  1  0  0  0  0
 20 22  2  0  0  0  0
 20 38  1  0  0  0  0
 21 23  2  0  0  0  0
 21 39  1  0  0  0  0
 22 23  1  0  0  0  0
 22 40  1  0  0  0  0
 23 24  1  0  0  0  0
 24 25  1  0  0  0  0
 24 26  1  0  0  0  0
 24 27  1  0  0  0  0
M  END
>  <ID>
561

>  <Parent ID>
254

>  <Generation>
3

>  <Parent Generation>
2

>  <Child No>
5

>  <Fitness>
0.96241

>  <SkelSpheres sim score>
0.95818

>  <FragFp sim score>
0.96667

$$$$
Compound 56
 OpenBabel11072204213D

 40 42  0  0  0  0  0  0  0  0999 V2000
    2.9038   -0.2045   -1.3186 F   0  0  0  0  0  0  0  0  0  0  0  0
    2.4220   -0.1242   -0.0420 C   0  0  0  0  0  0  0  0  0  0  0  0
    1.0614   -0.0586   -0.1608 F   0  0  0  0  0  0  0  0  0  0  0  0
    2.8248   -1.3461    0.7602 C   0  0  0  0  0  0  0  0  0  0  0  0
    2.9118    1.1876    0.5745 C   0  0  0  0  0  0  0  0  0  0  0  0
    2.5219   -2.6069    0.3968 N   0  0  0  0  0  0  0  0  0  0  0  0
    3.5225   -1.2500    1.9434 N   0  0  0  0  0  0  0  0  0  0  0  0
    2.4743    2.4030   -0.2308 C   0  0  0  0  0  0  0  0  0  0  0  0
    3.0306   -3.3378    1.4251 N   0  0  0  0  0  0  0  0  0  0  0  0
    3.6478   -2.4924    2.3494 C   0  0  0  0  0  0  0  0  0  0  0  0
    2.9539   -4.7291    1.6374 C   0  0  0  0  0  0  0  0  0  0  0  0
    4.2458   -2.9678    3.4781 N   0  0  0  0  0  0  0  0  0  0  0  0
    2.2938   -5.5080    0.6795 N   0  0  0  0  0  0  0  0  0  0  0  0
    3.5231   -5.2287    2.7501 C   0  0  0  0  0  0  0  0  0  0  0  0
    4.1922   -4.2537    3.6637 C   0  0  0  0  0  0  0  0  0  0  0  0
    1.1518   -6.2899    1.0035 C   0  0  0  0  0  0  0  0  0  0  0  0
    4.8501   -4.8319    4.8910 C   0  0  0  0  0  0  0  0  0  0  0  0
    0.2664   -5.9379    2.0309 C   0  0  0  0  0  0  0  0  0  0  0  0
    0.8272   -7.3801    0.1882 C   0  0  0  0  0  0  0  0  0  0  0  0
   -0.8811   -6.6960    2.2792 C   0  0  0  0  0  0  0  0  0  0  0  0
   -0.3182   -8.1449    0.4376 C   0  0  0  0  0  0  0  0  0  0  0  0
   -1.1823   -7.8116    1.4890 C   0  0  0  0  0  0  0  0  0  0  0  0
   -2.3876   -8.6617    1.7990 C   0  0  0  0  0  0  0  0  0  0  0  0
   -3.4107   -7.9557    2.3577 F   0  0  0  0  0  0  0  0  0  0  0  0
   -2.9140   -9.2691    0.6992 F   0  0  0  0  0  0  0  0  0  0  0  0
    4.0068    1.1856    0.6346 H   0  0  0  0  0  0  0  0  0  0  0  0
    2.5229    1.2916    1.5946 H   0  0  0  0  0  0  0  0  0  0  0  0
    2.8655    2.3623   -1.2524 H   0  0  0  0  0  0  0  0  0  0  0  0
    2.8476    3.3189    0.2369 H   0  0  0  0  0  0  0  0  0  0  0  0
    1.3835    2.4724   -0.2795 H   0  0  0  0  0  0  0  0  0  0  0  0
    2.0538   -4.9265   -0.1343 H   0  0  0  0  0  0  0  0  0  0  0  0
    3.5233   -6.2822    2.9962 H   0  0  0  0  0  0  0  0  0  0  0  0
    5.3272   -4.0429    5.4792 H   0  0  0  0  0  0  0  0  0  0  0  0
    5.6116   -5.5574    4.5899 H   0  0  0  0  0  0  0  0  0  0  0  0
    4.0993   -5.3311    5.5102 H   0  0  0  0  0  0  0  0  0  0  0  0
    0.4455   -5.0592    2.6446 H   0  0  0  0  0  0  0  0  0  0  0  0
    1.4784   -7.6524   -0.6396 H   0  0  0  0  0  0  0  0  0  0  0  0
   -1.5489   -6.3999    3.0869 H   0  0  0  0  0  0  0  0  0  0  0  0
   -0.5376   -8.9998   -0.2005 H   0  0  0  0  0  0  0  0  0  0  0  0
   -2.1031   -9.4462    2.5073 H   0  0  0  0  0  0  0  0  0  0  0  0
  1  2  1  0  0  0  0
  2  3  1  0  0  0  0
  2  4  1  0  0  0  0
  2  5  1  0  0  0  0
  4  6  2  0  0  0  0
  4  7  1  0  0  0  0
  5  8  1  0  0  0  0
  5 26  1  0  0  0  0
  5 27  1  0  0  0  0
  6  9  1  0  0  0  0
  7 10  2  0  0  0  0
  8 28  1  0  0  0  0
  8 29  1  0  0  0  0
  8 30  1  0  0  0  0
  9 11  1  0  0  0  0
  9 10  1  0  0  0  0
 10 12  1  0  0  0  0
 11 13  1  0  0  0  0
 11 14  2  0  0  0  0
 12 15  2  0  0  0  0
 13 16  1  0  0  0  0
 13 31  1  0  0  0  0
 14 15  1  0  0  0  0
 14 32  1  0  0  0  0
 15 17  1  0  0  0  0
 16 18  2  0  0  0  0
 16 19  1  0  0  0  0
 17 33  1  0  0  0  0
 17 34  1  0  0  0  0
 17 35  1  0  0  0  0
 18 20  1  0  0  0  0
 18 36  1  0  0  0  0
 19 21  2  0  0  0  0
 19 37  1  0  0  0  0
 20 22  2  0  0  0  0
 20 38  1  0  0  0  0
 21 22  1  0  0  0  0
 21 39  1  0  0  0  0
 22 23  1  0  0  0  0
 23 24  1  0  0  0  0
 23 25  1  0  0  0  0
 23 40  1  0  0  0  0
M  END
>  <ID>
567

>  <Parent ID>
498

>  <Generation>
3

>  <Parent Generation>
2

>  <Child No>
5

>  <Fitness>
0.95183

>  <SkelSpheres sim score>
0.90599

>  <FragFp sim score>
1

$$$$
Compound 57
 OpenBabel11072204213D

 46 48  0  0  0  0  0  0  0  0999 V2000
    2.9122   -0.1887   -1.2967 F   0  0  0  0  0  0  0  0  0  0  0  0
    2.4238   -0.1120   -0.0223 C   0  0  0  0  0  0  0  0  0  0  0  0
    1.0638   -0.0525   -0.1477 F   0  0  0  0  0  0  0  0  0  0  0  0
    2.8283   -1.3332    0.7790 C   0  0  0  0  0  0  0  0  0  0  0  0
    2.9051    1.2032    0.5971 C   0  0  0  0  0  0  0  0  0  0  0  0
    2.5373   -2.5936    0.4067 N   0  0  0  0  0  0  0  0  0  0  0  0
    3.5168   -1.2388    1.9684 N   0  0  0  0  0  0  0  0  0  0  0  0
    2.4612    2.4218   -0.2164 C   0  0  0  0  0  0  0  0  0  0  0  0
    3.0510   -3.3273    1.4299 N   0  0  0  0  0  0  0  0  0  0  0  0
    3.6534   -2.4833    2.3645 C   0  0  0  0  0  0  0  0  0  0  0  0
    2.9567    3.7172    0.4093 C   0  0  0  0  0  0  0  0  0  0  0  0
    2.9909   -4.7216    1.6265 C   0  0  0  0  0  0  0  0  0  0  0  0
    4.2494   -2.9632    3.4926 N   0  0  0  0  0  0  0  0  0  0  0  0
    2.3374   -5.4950    0.6591 N   0  0  0  0  0  0  0  0  0  0  0  0
    3.5637   -5.2262    2.7350 C   0  0  0  0  0  0  0  0  0  0  0  0
    4.2120   -4.2509    3.6647 C   0  0  0  0  0  0  0  0  0  0  0  0
    1.2075   -6.2976    0.9784 C   0  0  0  0  0  0  0  0  0  0  0  0
    4.8642   -4.8312    4.8940 C   0  0  0  0  0  0  0  0  0  0  0  0
    0.3217   -5.9670    2.0119 C   0  0  0  0  0  0  0  0  0  0  0  0
    0.8888   -7.3777    0.1455 C   0  0  0  0  0  0  0  0  0  0  0  0
   -0.8213   -6.7341    2.2480 C   0  0  0  0  0  0  0  0  0  0  0  0
   -0.2544   -8.1504    0.3823 C   0  0  0  0  0  0  0  0  0  0  0  0
   -1.1181   -7.8405    1.4413 C   0  0  0  0  0  0  0  0  0  0  0  0
   -2.3474   -8.6778    1.7221 C   0  0  0  0  0  0  0  0  0  0  0  0
   -3.3565   -7.9435    2.2764 F   0  0  0  0  0  0  0  0  0  0  0  0
   -2.8794   -9.2196    0.5878 F   0  0  0  0  0  0  0  0  0  0  0  0
   -2.0316   -9.8178    2.6780 C   0  0  0  0  0  0  0  0  0  0  0  0
    4.0003    1.1992    0.6631 H   0  0  0  0  0  0  0  0  0  0  0  0
    2.5118    1.2980    1.6169 H   0  0  0  0  0  0  0  0  0  0  0  0
    1.3674    2.4512   -0.2793 H   0  0  0  0  0  0  0  0  0  0  0  0
    2.8444    2.3494   -1.2405 H   0  0  0  0  0  0  0  0  0  0  0  0
    2.5685    3.8363    1.4261 H   0  0  0  0  0  0  0  0  0  0  0  0
    2.6253    4.5762   -0.1828 H   0  0  0  0  0  0  0  0  0  0  0  0
    4.0503    3.7379    0.4545 H   0  0  0  0  0  0  0  0  0  0  0  0
    2.0780   -4.8981   -0.1383 H   0  0  0  0  0  0  0  0  0  0  0  0
    3.5732   -6.2814    2.9726 H   0  0  0  0  0  0  0  0  0  0  0  0
    5.3393   -4.0431    5.4853 H   0  0  0  0  0  0  0  0  0  0  0  0
    5.6264   -5.5570    4.5965 H   0  0  0  0  0  0  0  0  0  0  0  0
    4.1094   -5.3293    5.5090 H   0  0  0  0  0  0  0  0  0  0  0  0
    0.4939   -5.0947    2.6365 H   0  0  0  0  0  0  0  0  0  0  0  0
    1.5386   -7.6292   -0.6888 H   0  0  0  0  0  0  0  0  0  0  0  0
   -1.4919   -6.4512    3.0581 H   0  0  0  0  0  0  0  0  0  0  0  0
   -0.4723   -8.9914   -0.2749 H   0  0  0  0  0  0  0  0  0  0  0  0
   -1.6182   -9.4480    3.6224 H   0  0  0  0  0  0  0  0  0  0  0  0
   -1.3220  -10.5240    2.2355 H   0  0  0  0  0  0  0  0  0  0  0  0
   -2.9468  -10.3709    2.9140 H   0  0  0  0  0  0  0  0  0  0  0  0
  1  2  1  0  0  0  0
  2  3  1  0  0  0  0
  2  4  1  0  0  0  0
  2  5  1  0  0  0  0
  4  6  2  0  0  0  0
  4  7  1  0  0  0  0
  5  8  1  0  0  0  0
  5 28  1  0  0  0  0
  5 29  1  0  0  0  0
  6  9  1  0  0  0  0
  7 10  2  0  0  0  0
  8 11  1  0  0  0  0
  8 30  1  0  0  0  0
  8 31  1  0  0  0  0
  9 12  1  0  0  0  0
  9 10  1  0  0  0  0
 10 13  1  0  0  0  0
 11 32  1  0  0  0  0
 11 33  1  0  0  0  0
 11 34  1  0  0  0  0
 12 14  1  0  0  0  0
 12 15  2  0  0  0  0
 13 16  2  0  0  0  0
 14 17  1  0  0  0  0
 14 35  1  0  0  0  0
 15 16  1  0  0  0  0
 15 36  1  0  0  0  0
 16 18  1  0  0  0  0
 17 19  2  0  0  0  0
 17 20  1  0  0  0  0
 18 37  1  0  0  0  0
 18 38  1  0  0  0  0
 18 39  1  0  0  0  0
 19 21  1  0  0  0  0
 19 40  1  0  0  0  0
 20 22  2  0  0  0  0
 20 41  1  0  0  0  0
 21 23  2  0  0  0  0
 21 42  1  0  0  0  0
 22 23  1  0  0  0  0
 22 43  1  0  0  0  0
 23 24  1  0  0  0  0
 24 25  1  0  0  0  0
 24 26  1  0  0  0  0
 24 27  1  0  0  0  0
 27 44  1  0  0  0  0
 27 45  1  0  0  0  0
 27 46  1  0  0  0  0
M  END
>  <ID>
569

>  <Parent ID>
498

>  <Generation>
3

>  <Parent Generation>
2

>  <Child No>
6

>  <Fitness>
0.94521

>  <SkelSpheres sim score>
0.91396

>  <FragFp sim score>
0.97753

$$$$
Compound 58
 OpenBabel11072204213D

 35 37  0  0  0  0  0  0  0  0999 V2000
    1.1102   -0.8064   -0.0700 Cl  0  0  0  0  0  0  0  0  0  0  0  0
    2.8059   -0.4951    0.0023 C   0  0  0  0  0  0  0  0  0  0  0  0
    3.5707   -1.5357   -0.0668 N   0  0  0  0  0  0  0  0  0  0  0  0
    3.2743    0.9114    0.1133 C   0  0  0  0  0  0  0  0  0  0  0  0
    4.9070   -1.2927   -0.0393 C   0  0  0  0  0  0  0  0  0  0  0  0
    4.6007    1.1508    0.0463 C   0  0  0  0  0  0  0  0  0  0  0  0
    5.8769   -2.1724   -0.0640 N   0  0  0  0  0  0  0  0  0  0  0  0
    5.4473    0.0047    0.0040 N   0  0  0  0  0  0  0  0  0  0  0  0
    5.1859    2.4236    0.0688 N   0  0  0  0  0  0  0  0  0  0  0  0
    7.0191   -1.4193   -0.0201 C   0  0  0  0  0  0  0  0  0  0  0  0
    6.8129   -0.0877    0.0138 N   0  0  0  0  0  0  0  0  0  0  0  0
    4.7060    3.6368   -0.4916 C   0  0  0  0  0  0  0  0  0  0  0  0
    8.3622   -2.1199   -0.0599 C   0  0  0  0  0  0  0  0  0  0  0  0
    3.5335    3.7367   -1.2511 C   0  0  0  0  0  0  0  0  0  0  0  0
    5.3872    4.8381   -0.2248 C   0  0  0  0  0  0  0  0  0  0  0  0
    9.4128   -1.2483   -0.0705 F   0  0  0  0  0  0  0  0  0  0  0  0
    8.5354   -2.8635    1.0793 F   0  0  0  0  0  0  0  0  0  0  0  0
    8.4881   -3.0751   -1.2421 C   0  0  0  0  0  0  0  0  0  0  0  0
    3.0694    4.9622   -1.7482 C   0  0  0  0  0  0  0  0  0  0  0  0
    4.9380    6.0726   -0.7396 C   0  0  0  0  0  0  0  0  0  0  0  0
    8.4314   -2.2695   -2.5298 C   0  0  0  0  0  0  0  0  0  0  0  0
    3.7776    6.1439   -1.5182 C   0  0  0  0  0  0  0  0  0  0  0  0
    8.3844   -1.6011   -3.5981 N   0  0  0  0  0  0  0  0  0  0  0  0
    3.3068    7.4471   -2.1210 C   0  0  0  0  0  0  0  0  0  0  0  0
    2.1684    7.3187   -2.8622 F   0  0  0  0  0  0  0  0  0  0  0  0
    3.0324    8.3963   -1.1849 F   0  0  0  0  0  0  0  0  0  0  0  0
    4.2291    7.9980   -2.9576 F   0  0  0  0  0  0  0  0  0  0  0  0
    2.5231    1.6775    0.2311 H   0  0  0  0  0  0  0  0  0  0  0  0
    6.2048    2.3987    0.1606 H   0  0  0  0  0  0  0  0  0  0  0  0
    2.9574    2.8619   -1.5264 H   0  0  0  0  0  0  0  0  0  0  0  0
    6.2869    4.8324    0.3880 H   0  0  0  0  0  0  0  0  0  0  0  0
    7.6978   -3.8334   -1.2387 H   0  0  0  0  0  0  0  0  0  0  0  0
    9.4491   -3.5993   -1.1976 H   0  0  0  0  0  0  0  0  0  0  0  0
    2.1529    4.9772   -2.3372 H   0  0  0  0  0  0  0  0  0  0  0  0
    5.5100    6.9760   -0.5300 H   0  0  0  0  0  0  0  0  0  0  0  0
  1  2  1  0  0  0  0
  2  3  2  0  0  0  0
  2  4  1  0  0  0  0
  3  5  1  0  0  0  0
  4  6  2  0  0  0  0
  4 28  1  0  0  0  0
  5  7  2  0  0  0  0
  5  8  1  0  0  0  0
  6  9  1  0  0  0  0
  6  8  1  0  0  0  0
  7 10  1  0  0  0  0
  8 11  1  0  0  0  0
  9 12  1  0  0  0  0
  9 29  1  0  0  0  0
 10 13  1  0  0  0  0
 10 11  2  0  0  0  0
 12 14  2  0  0  0  0
 12 15  1  0  0  0  0
 13 16  1  0  0  0  0
 13 17  1  0  0  0  0
 13 18  1  0  0  0  0
 14 19  1  0  0  0  0
 14 30  1  0  0  0  0
 15 20  2  0  0  0  0
 15 31  1  0  0  0  0
 18 21  1  0  0  0  0
 18 32  1  0  0  0  0
 18 33  1  0  0  0  0
 19 22  2  0  0  0  0
 19 34  1  0  0  0  0
 20 22  1  0  0  0  0
 20 35  1  0  0  0  0
 21 23  3  0  0  0  0
 22 24  1  0  0  0  0
 24 25  1  0  0  0  0
 24 26  1  0  0  0  0
 24 27  1  0  0  0  0
M  END
>  <ID>
637

>  <Parent ID>
486

>  <Generation>
5

>  <Parent Generation>
4

>  <Child No>
7

>  <Fitness>
0.94515

>  <SkelSpheres sim score>
0.91396

>  <FragFp sim score>
0.9774

$$$$
Compound 59
 OpenBabel11072204213D

 45 47  0  0  0  0  0  0  0  0999 V2000
    7.7180   -0.4617   -0.5708 F   0  0  0  0  0  0  0  0  0  0  0  0
    7.1498    0.6627   -1.0929 C   0  0  0  0  0  0  0  0  0  0  0  0
    6.6075    1.3307   -0.0401 F   0  0  0  0  0  0  0  0  0  0  0  0
    8.1875    1.4283   -1.5320 F   0  0  0  0  0  0  0  0  0  0  0  0
    6.1510    0.3777   -2.1875 C   0  0  0  0  0  0  0  0  0  0  0  0
    5.9050   -0.9314   -2.6030 C   0  0  0  0  0  0  0  0  0  0  0  0
    5.4794    1.4210   -2.8406 C   0  0  0  0  0  0  0  0  0  0  0  0
    5.0763   -1.1808   -3.7001 C   0  0  0  0  0  0  0  0  0  0  0  0
    4.6405    1.1618   -3.9361 C   0  0  0  0  0  0  0  0  0  0  0  0
    4.4778   -0.1398   -4.4270 C   0  0  0  0  0  0  0  0  0  0  0  0
    3.6814   -0.3482   -5.5935 N   0  0  0  0  0  0  0  0  0  0  0  0
    3.6059   -1.5815   -6.2502 C   0  0  0  0  0  0  0  0  0  0  0  0
    4.0265   -1.6840   -7.5971 N   0  0  0  0  0  0  0  0  0  0  0  0
    3.1403   -2.6958   -5.6629 C   0  0  0  0  0  0  0  0  0  0  0  0
    4.4177   -0.6975   -8.4595 N   0  0  0  0  0  0  0  0  0  0  0  0
    4.0661   -2.9194   -8.2511 C   0  0  0  0  0  0  0  0  0  0  0  0
    3.3747   -3.9841   -6.3730 C   0  0  0  0  0  0  0  0  0  0  0  0
    4.5771   -1.3740   -9.6161 C   0  0  0  0  0  0  0  0  0  0  0  0
    3.7961   -4.0893   -7.6021 N   0  0  0  0  0  0  0  0  0  0  0  0
    4.4254   -2.7368   -9.4985 N   0  0  0  0  0  0  0  0  0  0  0  0
    3.2036   -5.2489   -5.5357 C   0  0  0  0  0  0  0  0  0  0  0  0
    4.8527   -0.7272  -10.9614 C   0  0  0  0  0  0  0  0  0  0  0  0
    4.4847   -5.9582   -5.3941 N   0  0  0  0  0  0  0  0  0  0  0  0
    4.2343   -1.4281  -11.9611 F   0  0  0  0  0  0  0  0  0  0  0  0
    4.3166    0.5290  -11.0204 F   0  0  0  0  0  0  0  0  0  0  0  0
    6.3403   -0.6361  -11.2971 C   0  0  0  0  0  0  0  0  0  0  0  0
    5.5063   -5.1896   -4.6956 C   0  0  0  0  0  0  0  0  0  0  0  0
    6.5722   -0.0121  -12.6700 C   0  0  0  0  0  0  0  0  0  0  0  0
    6.3792   -1.7721   -2.0978 H   0  0  0  0  0  0  0  0  0  0  0  0
    5.6256    2.4496   -2.5129 H   0  0  0  0  0  0  0  0  0  0  0  0
    4.9603   -2.2186   -3.9852 H   0  0  0  0  0  0  0  0  0  0  0  0
    4.1385    1.9970   -4.4198 H   0  0  0  0  0  0  0  0  0  0  0  0
    3.8415    0.4147   -6.2600 H   0  0  0  0  0  0  0  0  0  0  0  0
    2.7348   -2.7112   -4.6578 H   0  0  0  0  0  0  0  0  0  0  0  0
    2.4859   -5.9004   -6.0450 H   0  0  0  0  0  0  0  0  0  0  0  0
    2.7895   -5.0141   -4.5494 H   0  0  0  0  0  0  0  0  0  0  0  0
    4.8236   -6.1864   -6.3326 H   0  0  0  0  0  0  0  0  0  0  0  0
    6.7921   -1.6350  -11.2893 H   0  0  0  0  0  0  0  0  0  0  0  0
    6.8590   -0.0303  -10.5451 H   0  0  0  0  0  0  0  0  0  0  0  0
    5.1588   -4.8534   -3.7135 H   0  0  0  0  0  0  0  0  0  0  0  0
    5.8313   -4.3193   -5.2752 H   0  0  0  0  0  0  0  0  0  0  0  0
    6.3880   -5.8179   -4.5347 H   0  0  0  0  0  0  0  0  0  0  0  0
    6.1090   -0.6118  -13.4608 H   0  0  0  0  0  0  0  0  0  0  0  0
    7.6439    0.0536  -12.8839 H   0  0  0  0  0  0  0  0  0  0  0  0
    6.1559    0.9992  -12.7211 H   0  0  0  0  0  0  0  0  0  0  0  0
  1  2  1  0  0  0  0
  2  3  1  0  0  0  0
  2  4  1  0  0  0  0
  2  5  1  0  0  0  0
  5  6  2  0  0  0  0
  5  7  1  0  0  0  0
  6  8  1  0  0  0  0
  6 29  1  0  0  0  0
  7  9  2  0  0  0  0
  7 30  1  0  0  0  0
  8 10  2  0  0  0  0
  8 31  1  0  0  0  0
  9 10  1  0  0  0  0
  9 32  1  0  0  0  0
 10 11  1  0  0  0  0
 11 12  1  0  0  0  0
 11 33  1  0  0  0  0
 12 13  1  0  0  0  0
 12 14  2  0  0  0  0
 13 15  1  0  0  0  0
 13 16  1  0  0  0  0
 14 17  1  0  0  0  0
 14 34  1  0  0  0  0
 15 18  2  0  0  0  0
 16 19  1  0  0  0  0
 16 20  2  0  0  0  0
 17 21  1  0  0  0  0
 17 19  2  0  0  0  0
 18 22  1  0  0  0  0
 18 20  1  0  0  0  0
 21 23  1  0  0  0  0
 21 35  1  0  0  0  0
 21 36  1  0  0  0  0
 22 24  1  0  0  0  0
 22 25  1  0  0  0  0
 22 26  1  0  0  0  0
 23 27  1  0  0  0  0
 23 37  1  0  0  0  0
 26 28  1  0  0  0  0
 26 38  1  0  0  0  0
 26 39  1  0  0  0  0
 27 40  1  0  0  0  0
 27 41  1  0  0  0  0
 27 42  1  0  0  0  0
 28 43  1  0  0  0  0
 28 44  1  0  0  0  0
 28 45  1  0  0  0  0
M  END
>  <ID>
644

>  <Parent ID>
54

>  <Generation>
2

>  <Parent Generation>
1

>  <Child No>
3

>  <Fitness>
0.96674

>  <SkelSpheres sim score>
0.93996

>  <FragFp sim score>
0.99429

$$$$
Compound 60
 OpenBabel11072204213D

 41 43  0  0  0  0  0  0  0  0999 V2000
    7.4562    0.5883   -0.7184 F   0  0  0  0  0  0  0  0  0  0  0  0
    6.7281    1.7268   -0.5358 C   0  0  0  0  0  0  0  0  0  0  0  0
    6.1811    1.6270    0.7056 F   0  0  0  0  0  0  0  0  0  0  0  0
    7.6389    2.7373   -0.4671 F   0  0  0  0  0  0  0  0  0  0  0  0
    5.6998    1.9620   -1.6140 C   0  0  0  0  0  0  0  0  0  0  0  0
    5.5639    1.0662   -2.6764 C   0  0  0  0  0  0  0  0  0  0  0  0
    4.8881    3.1055   -1.5968 C   0  0  0  0  0  0  0  0  0  0  0  0
    4.7041    1.3531   -3.7392 C   0  0  0  0  0  0  0  0  0  0  0  0
    4.0227    3.3858   -2.6642 C   0  0  0  0  0  0  0  0  0  0  0  0
    3.9694    2.5479   -3.7860 C   0  0  0  0  0  0  0  0  0  0  0  0
    3.1444    2.9222   -4.8894 N   0  0  0  0  0  0  0  0  0  0  0  0
    3.1946    2.2528   -6.1163 C   0  0  0  0  0  0  0  0  0  0  0  0
    3.6492    2.9516   -7.2582 N   0  0  0  0  0  0  0  0  0  0  0  0
    2.8375    0.9658   -6.2721 C   0  0  0  0  0  0  0  0  0  0  0  0
    3.9723    4.2680   -7.4011 N   0  0  0  0  0  0  0  0  0  0  0  0
    3.8242    2.2895   -8.4827 C   0  0  0  0  0  0  0  0  0  0  0  0
    3.1750    0.3221   -7.5749 C   0  0  0  0  0  0  0  0  0  0  0  0
    4.2494    4.3569   -8.7168 C   0  0  0  0  0  0  0  0  0  0  0  0
    3.6382    0.9454   -8.6173 N   0  0  0  0  0  0  0  0  0  0  0  0
    4.2153    3.1580   -9.3879 N   0  0  0  0  0  0  0  0  0  0  0  0
    3.0379   -1.1926   -7.6221 C   0  0  0  0  0  0  0  0  0  0  0  0
    4.5649    5.6548   -9.4400 C   0  0  0  0  0  0  0  0  0  0  0  0
    3.8633   -1.7803   -6.6253 O   0  0  0  0  0  0  0  0  0  0  0  0
    4.0759    5.6204  -10.7170 F   0  0  0  0  0  0  0  0  0  0  0  0
    3.9408    6.7152   -8.8445 F   0  0  0  0  0  0  0  0  0  0  0  0
    6.0628    5.9493   -9.5112 C   0  0  0  0  0  0  0  0  0  0  0  0
    6.3521    7.2355  -10.2784 C   0  0  0  0  0  0  0  0  0  0  0  0
    6.1483    0.1474   -2.7053 H   0  0  0  0  0  0  0  0  0  0  0  0
    4.9451    3.8005   -0.7600 H   0  0  0  0  0  0  0  0  0  0  0  0
    4.6723    0.6263   -4.5432 H   0  0  0  0  0  0  0  0  0  0  0  0
    3.4129    4.2858   -2.6224 H   0  0  0  0  0  0  0  0  0  0  0  0
    3.2168    3.9370   -5.0266 H   0  0  0  0  0  0  0  0  0  0  0  0
    2.4458    0.3535   -5.4692 H   0  0  0  0  0  0  0  0  0  0  0  0
    3.3292   -1.5812   -8.6019 H   0  0  0  0  0  0  0  0  0  0  0  0
    1.9985   -1.4665   -7.4221 H   0  0  0  0  0  0  0  0  0  0  0  0
    4.7828   -1.7055   -6.9394 H   0  0  0  0  0  0  0  0  0  0  0  0
    6.5872    5.1241  -10.0076 H   0  0  0  0  0  0  0  0  0  0  0  0
    6.4754    6.0444   -8.5003 H   0  0  0  0  0  0  0  0  0  0  0  0
    5.9999    7.1665  -11.3129 H   0  0  0  0  0  0  0  0  0  0  0  0
    7.4291    7.4305  -10.3033 H   0  0  0  0  0  0  0  0  0  0  0  0
    5.8645    8.0953   -9.8077 H   0  0  0  0  0  0  0  0  0  0  0  0
  1  2  1  0  0  0  0
  2  3  1  0  0  0  0
  2  4  1  0  0  0  0
  2  5  1  0  0  0  0
  5  6  2  0  0  0  0
  5  7  1  0  0  0  0
  6  8  1  0  0  0  0
  6 28  1  0  0  0  0
  7  9  2  0  0  0  0
  7 29  1  0  0  0  0
  8 10  2  0  0  0  0
  8 30  1  0  0  0  0
  9 10  1  0  0  0  0
  9 31  1  0  0  0  0
 10 11  1  0  0  0  0
 11 12  1  0  0  0  0
 11 32  1  0  0  0  0
 12 13  1  0  0  0  0
 12 14  2  0  0  0  0
 13 15  1  0  0  0  0
 13 16  1  0  0  0  0
 14 17  1  0  0  0  0
 14 33  1  0  0  0  0
 15 18  2  0  0  0  0
 16 19  1  0  0  0  0
 16 20  2  0  0  0  0
 17 21  1  0  0  0  0
 17 19  2  0  0  0  0
 18 22  1  0  0  0  0
 18 20  1  0  0  0  0
 21 23  1  0  0  0  0
 21 34  1  0  0  0  0
 21 35  1  0  0  0  0
 22 24  1  0  0  0  0
 22 25  1  0  0  0  0
 22 26  1  0  0  0  0
 23 36  1  0  0  0  0
 26 27  1  0  0  0  0
 26 37  1  0  0  0  0
 26 38  1  0  0  0  0
 27 39  1  0  0  0  0
 27 40  1  0  0  0  0
 27 41  1  0  0  0  0
M  END
>  <ID>
645

>  <Parent ID>
54

>  <Generation>
2

>  <Parent Generation>
1

>  <Child No>
4

>  <Fitness>
0.95265

>  <SkelSpheres sim score>
0.94927

>  <FragFp sim score>
0.95604

$$$$
Compound 61
 OpenBabel11072204213D

 41 43  0  0  0  0  0  0  0  0999 V2000
    0.9743    1.6075   -0.1726 S   0  0  0  0  0  0  0  0  0  0  0  0
    2.8049    1.5162   -0.0939 C   0  0  0  0  0  0  0  0  0  0  0  0
    3.4387    0.6949   -1.2232 C   0  0  0  0  0  0  0  0  0  0  0  0
    2.9450   -0.5770   -1.1893 F   0  0  0  0  0  0  0  0  0  0  0  0
    3.0492    1.2132   -2.4283 F   0  0  0  0  0  0  0  0  0  0  0  0
    4.9511    0.7041   -1.1323 C   0  0  0  0  0  0  0  0  0  0  0  0
    5.7273   -0.3961   -1.0876 N   0  0  0  0  0  0  0  0  0  0  0  0
    5.6455    1.8901   -1.1285 N   0  0  0  0  0  0  0  0  0  0  0  0
    6.9832    0.1259   -1.1937 N   0  0  0  0  0  0  0  0  0  0  0  0
    6.9053    1.5279   -1.1890 C   0  0  0  0  0  0  0  0  0  0  0  0
    8.2252   -0.5344   -1.3452 C   0  0  0  0  0  0  0  0  0  0  0  0
    8.0140    2.3213   -1.2419 N   0  0  0  0  0  0  0  0  0  0  0  0
    8.2831   -1.9279   -1.2734 N   0  0  0  0  0  0  0  0  0  0  0  0
    9.2934    0.2432   -1.6083 C   0  0  0  0  0  0  0  0  0  0  0  0
    9.1428    1.7135   -1.4450 C   0  0  0  0  0  0  0  0  0  0  0  0
    9.4371   -2.6949   -1.0033 C   0  0  0  0  0  0  0  0  0  0  0  0
   10.4298    2.5125   -1.4365 C   0  0  0  0  0  0  0  0  0  0  0  0
   10.4888   -2.1856   -0.2223 C   0  0  0  0  0  0  0  0  0  0  0  0
    9.6394   -3.9135   -1.6529 C   0  0  0  0  0  0  0  0  0  0  0  0
   11.0945    2.4203   -0.0709 C   0  0  0  0  0  0  0  0  0  0  0  0
   11.7438   -2.7933   -0.1985 C   0  0  0  0  0  0  0  0  0  0  0  0
   10.8940   -4.5441   -1.6138 C   0  0  0  0  0  0  0  0  0  0  0  0
   11.9715   -3.9621   -0.9268 C   0  0  0  0  0  0  0  0  0  0  0  0
   13.3563   -4.5591   -1.0055 C   0  0  0  0  0  0  0  0  0  0  0  0
   14.3048   -3.8108   -0.3726 F   0  0  0  0  0  0  0  0  0  0  0  0
   13.4304   -5.8008   -0.4553 F   0  0  0  0  0  0  0  0  0  0  0  0
   13.7912   -4.6885   -2.2906 F   0  0  0  0  0  0  0  0  0  0  0  0
    0.8116    2.3873    0.9061 H   0  0  0  0  0  0  0  0  0  0  0  0
    3.0615    1.0812    0.8776 H   0  0  0  0  0  0  0  0  0  0  0  0
    3.1715    2.5480   -0.1119 H   0  0  0  0  0  0  0  0  0  0  0  0
    7.3888   -2.4170   -1.3271 H   0  0  0  0  0  0  0  0  0  0  0  0
   10.2744   -0.1425   -1.8489 H   0  0  0  0  0  0  0  0  0  0  0  0
   10.2142    3.5566   -1.6847 H   0  0  0  0  0  0  0  0  0  0  0  0
   11.1055    2.1174   -2.2047 H   0  0  0  0  0  0  0  0  0  0  0  0
   10.3541   -1.2737    0.3540 H   0  0  0  0  0  0  0  0  0  0  0  0
    8.8468   -4.3557   -2.2525 H   0  0  0  0  0  0  0  0  0  0  0  0
   10.4369    2.8096    0.7134 H   0  0  0  0  0  0  0  0  0  0  0  0
   12.0247    2.9970   -0.0584 H   0  0  0  0  0  0  0  0  0  0  0  0
   11.3369    1.3829    0.1867 H   0  0  0  0  0  0  0  0  0  0  0  0
   12.5490   -2.3245    0.3674 H   0  0  0  0  0  0  0  0  0  0  0  0
   11.0409   -5.4721   -2.1662 H   0  0  0  0  0  0  0  0  0  0  0  0
  1  2  1  0  0  0  0
  1 28  1  0  0  0  0
  2  3  1  0  0  0  0
  2 29  1  0  0  0  0
  2 30  1  0  0  0  0
  3  4  1  0  0  0  0
  3  5  1  0  0  0  0
  3  6  1  0  0  0  0
  6  7  2  0  0  0  0
  6  8  1  0  0  0  0
  7  9  1  0  0  0  0
  8 10  2  0  0  0  0
  9 11  1  0  0  0  0
  9 10  1  0  0  0  0
 10 12  1  0  0  0  0
 11 13  1  0  0  0  0
 11 14  2  0  0  0  0
 12 15  2  0  0  0  0
 13 16  1  0  0  0  0
 13 31  1  0  0  0  0
 14 15  1  0  0  0  0
 14 32  1  0  0  0  0
 15 17  1  0  0  0  0
 16 18  2  0  0  0  0
 16 19  1  0  0  0  0
 17 20  1  0  0  0  0
 17 33  1  0  0  0  0
 17 34  1  0  0  0  0
 18 21  1  0  0  0  0
 18 35  1  0  0  0  0
 19 22  2  0  0  0  0
 19 36  1  0  0  0  0
 20 37  1  0  0  0  0
 20 38  1  0  0  0  0
 20 39  1  0  0  0  0
 21 23  2  0  0  0  0
 21 40  1  0  0  0  0
 22 23  1  0  0  0  0
 22 41  1  0  0  0  0
 23 24  1  0  0  0  0
 24 25  1  0  0  0  0
 24 26  1  0  0  0  0
 24 27  1  0  0  0  0
M  END
>  <ID>
650

>  <Parent ID>
395

>  <Generation>
3

>  <Parent Generation>
2

>  <Child No>
8

>  <Fitness>
0.94478

>  <SkelSpheres sim score>
0.92394

>  <FragFp sim score>
0.9661

$$$$
Compound 62
 OpenBabel11072204213D

 37 39  0  0  0  0  0  0  0  0999 V2000
    1.0343    1.5317   -0.1928 Br  0  0  0  0  0  0  0  0  0  0  0  0
    2.9894    1.4812   -0.0987 C   0  0  0  0  0  0  0  0  0  0  0  0
    3.5844    0.6648   -1.2363 C   0  0  0  0  0  0  0  0  0  0  0  0
    3.1013   -0.6109   -1.1795 F   0  0  0  0  0  0  0  0  0  0  0  0
    3.1552    1.1728   -2.4309 F   0  0  0  0  0  0  0  0  0  0  0  0
    5.0978    0.6858   -1.1860 C   0  0  0  0  0  0  0  0  0  0  0  0
    5.8867   -0.4042   -1.1431 N   0  0  0  0  0  0  0  0  0  0  0  0
    5.7764    1.8797   -1.2040 N   0  0  0  0  0  0  0  0  0  0  0  0
    7.1366    0.1332   -1.2418 N   0  0  0  0  0  0  0  0  0  0  0  0
    7.0389    1.5346   -1.2510 C   0  0  0  0  0  0  0  0  0  0  0  0
    8.3902   -0.5119   -1.3555 C   0  0  0  0  0  0  0  0  0  0  0  0
    8.1386    2.3410   -1.2913 N   0  0  0  0  0  0  0  0  0  0  0  0
    8.4600   -1.9034   -1.2782 N   0  0  0  0  0  0  0  0  0  0  0  0
    9.4597    0.2756   -1.5835 C   0  0  0  0  0  0  0  0  0  0  0  0
    9.2788    1.7434   -1.4449 C   0  0  0  0  0  0  0  0  0  0  0  0
    9.5984   -2.6557   -0.9148 C   0  0  0  0  0  0  0  0  0  0  0  0
   10.5494    2.5547   -1.4021 C   0  0  0  0  0  0  0  0  0  0  0  0
   10.5930   -2.1277   -0.0744 C   0  0  0  0  0  0  0  0  0  0  0  0
    9.8443   -3.8939   -1.5145 C   0  0  0  0  0  0  0  0  0  0  0  0
   11.8375   -2.7426    0.0668 C   0  0  0  0  0  0  0  0  0  0  0  0
   11.0888   -4.5271   -1.3639 C   0  0  0  0  0  0  0  0  0  0  0  0
   12.1136   -3.9328   -0.6097 C   0  0  0  0  0  0  0  0  0  0  0  0
   13.4951   -4.5401   -0.5614 C   0  0  0  0  0  0  0  0  0  0  0  0
   14.3939   -3.7842    0.1310 F   0  0  0  0  0  0  0  0  0  0  0  0
   13.5132   -5.7697    0.0198 F   0  0  0  0  0  0  0  0  0  0  0  0
   14.0321   -4.7006   -1.8032 F   0  0  0  0  0  0  0  0  0  0  0  0
    3.2245    1.0515    0.8791 H   0  0  0  0  0  0  0  0  0  0  0  0
    3.3044    2.5287   -0.1264 H   0  0  0  0  0  0  0  0  0  0  0  0
    7.5707   -2.4001   -1.3238 H   0  0  0  0  0  0  0  0  0  0  0  0
   10.4528   -0.0994   -1.7896 H   0  0  0  0  0  0  0  0  0  0  0  0
   10.3275    3.6244   -1.4004 H   0  0  0  0  0  0  0  0  0  0  0  0
   11.1758    2.3152   -2.2658 H   0  0  0  0  0  0  0  0  0  0  0  0
   11.0958    2.3044   -0.4861 H   0  0  0  0  0  0  0  0  0  0  0  0
   10.4201   -1.1993    0.4648 H   0  0  0  0  0  0  0  0  0  0  0  0
    9.0966   -4.3493   -2.1600 H   0  0  0  0  0  0  0  0  0  0  0  0
   12.5980   -2.2625    0.6811 H   0  0  0  0  0  0  0  0  0  0  0  0
   11.2724   -5.4695   -1.8790 H   0  0  0  0  0  0  0  0  0  0  0  0
  1  2  1  0  0  0  0
  2  3  1  0  0  0  0
  2 27  1  0  0  0  0
  2 28  1  0  0  0  0
  3  4  1  0  0  0  0
  3  5  1  0  0  0  0
  3  6  1  0  0  0  0
  6  7  2  0  0  0  0
  6  8  1  0  0  0  0
  7  9  1  0  0  0  0
  8 10  2  0  0  0  0
  9 11  1  0  0  0  0
  9 10  1  0  0  0  0
 10 12  1  0  0  0  0
 11 13  1  0  0  0  0
 11 14  2  0  0  0  0
 12 15  2  0  0  0  0
 13 16  1  0  0  0  0
 13 29  1  0  0  0  0
 14 15  1  0  0  0  0
 14 30  1  0  0  0  0
 15 17  1  0  0  0  0
 16 18  2  0  0  0  0
 16 19  1  0  0  0  0
 17 31  1  0  0  0  0
 17 32  1  0  0  0  0
 17 33  1  0  0  0  0
 18 20  1  0  0  0  0
 18 34  1  0  0  0  0
 19 21  2  0  0  0  0
 19 35  1  0  0  0  0
 20 22  2  0  0  0  0
 20 36  1  0  0  0  0
 21 22  1  0  0  0  0
 21 37  1  0  0  0  0
 22 23  1  0  0  0  0
 23 24  1  0  0  0  0
 23 25  1  0  0  0  0
 23 26  1  0  0  0  0
M  END
>  <ID>
653

>  <Parent ID>
395

>  <Generation>
3

>  <Parent Generation>
2

>  <Child No>
2

>  <Fitness>
0.97027

>  <SkelSpheres sim score>
0.98041

>  <FragFp sim score>
0.96023

$$$$
Compound 63
 OpenBabel11072204213D

 37 39  0  0  0  0  0  0  0  0999 V2000
    6.1194   -0.8575    0.4604 F   0  0  0  0  0  0  0  0  0  0  0  0
    5.3719   -0.1626   -0.4426 C   0  0  0  0  0  0  0  0  0  0  0  0
    4.5177    0.6034    0.2889 F   0  0  0  0  0  0  0  0  0  0  0  0
    6.2325    0.7051   -1.0449 F   0  0  0  0  0  0  0  0  0  0  0  0
    4.6595   -1.0436   -1.4405 C   0  0  0  0  0  0  0  0  0  0  0  0
    4.7838   -2.4373   -1.3901 C   0  0  0  0  0  0  0  0  0  0  0  0
    3.8986   -0.4732   -2.4719 C   0  0  0  0  0  0  0  0  0  0  0  0
    4.2081   -3.2377   -2.3809 C   0  0  0  0  0  0  0  0  0  0  0  0
    3.3255   -1.2778   -3.4639 C   0  0  0  0  0  0  0  0  0  0  0  0
    3.4801   -2.6685   -3.4355 C   0  0  0  0  0  0  0  0  0  0  0  0
    3.0264   -3.4308   -4.5515 N   0  0  0  0  0  0  0  0  0  0  0  0
    2.8008   -4.8064   -4.4550 C   0  0  0  0  0  0  0  0  0  0  0  0
    3.5562   -5.6764   -5.2700 N   0  0  0  0  0  0  0  0  0  0  0  0
    1.9011   -5.3507   -3.6174 C   0  0  0  0  0  0  0  0  0  0  0  0
    4.5040   -5.3725   -6.1961 N   0  0  0  0  0  0  0  0  0  0  0  0
    3.4072   -7.0642   -5.1846 C   0  0  0  0  0  0  0  0  0  0  0  0
    1.8397   -6.8411   -3.5661 C   0  0  0  0  0  0  0  0  0  0  0  0
    4.9169   -6.5862   -6.6046 C   0  0  0  0  0  0  0  0  0  0  0  0
    2.5397   -7.6448   -4.3104 N   0  0  0  0  0  0  0  0  0  0  0  0
    4.2397   -7.6353   -6.0268 N   0  0  0  0  0  0  0  0  0  0  0  0
    0.9210   -7.4451   -2.5331 C   0  0  0  0  0  0  0  0  0  0  0  0
    6.0116   -6.8189   -7.6219 C   0  0  0  0  0  0  0  0  0  0  0  0
    6.5270   -5.6386   -8.0796 F   0  0  0  0  0  0  0  0  0  0  0  0
    7.0590   -7.4846   -7.0499 F   0  0  0  0  0  0  0  0  0  0  0  0
    5.4936   -7.6240   -8.8060 C   0  0  0  0  0  0  0  0  0  0  0  0
    6.4834   -7.8136   -9.7272 F   0  0  0  0  0  0  0  0  0  0  0  0
    5.3635   -2.9109   -0.5987 H   0  0  0  0  0  0  0  0  0  0  0  0
    3.7757    0.6080   -2.5249 H   0  0  0  0  0  0  0  0  0  0  0  0
    4.3776   -4.3100   -2.3313 H   0  0  0  0  0  0  0  0  0  0  0  0
    2.7641   -0.8094   -4.2697 H   0  0  0  0  0  0  0  0  0  0  0  0
    3.6791   -3.2445   -5.3277 H   0  0  0  0  0  0  0  0  0  0  0  0
    1.2621   -4.7585   -2.9747 H   0  0  0  0  0  0  0  0  0  0  0  0
    0.3787   -6.6740   -1.9794 H   0  0  0  0  0  0  0  0  0  0  0  0
    1.5172   -8.0281   -1.8242 H   0  0  0  0  0  0  0  0  0  0  0  0
    0.2004   -8.1034   -3.0250 H   0  0  0  0  0  0  0  0  0  0  0  0
    4.6776   -7.1012   -9.3142 H   0  0  0  0  0  0  0  0  0  0  0  0
    5.1460   -8.6156   -8.5002 H   0  0  0  0  0  0  0  0  0  0  0  0
  1  2  1  0  0  0  0
  2  3  1  0  0  0  0
  2  4  1  0  0  0  0
  2  5  1  0  0  0  0
  5  6  2  0  0  0  0
  5  7  1  0  0  0  0
  6  8  1  0  0  0  0
  6 27  1  0  0  0  0
  7  9  2  0  0  0  0
  7 28  1  0  0  0  0
  8 10  2  0  0  0  0
  8 29  1  0  0  0  0
  9 10  1  0  0  0  0
  9 30  1  0  0  0  0
 10 11  1  0  0  0  0
 11 12  1  0  0  0  0
 11 31  1  0  0  0  0
 12 13  1  0  0  0  0
 12 14  2  0  0  0  0
 13 15  1  0  0  0  0
 13 16  1  0  0  0  0
 14 17  1  0  0  0  0
 14 32  1  0  0  0  0
 15 18  2  0  0  0  0
 16 19  1  0  0  0  0
 16 20  2  0  0  0  0
 17 21  1  0  0  0  0
 17 19  2  0  0  0  0
 18 22  1  0  0  0  0
 18 20  1  0  0  0  0
 21 33  1  0  0  0  0
 21 34  1  0  0  0  0
 21 35  1  0  0  0  0
 22 23  1  0  0  0  0
 22 24  1  0  0  0  0
 22 25  1  0  0  0  0
 25 26  1  0  0  0  0
 25 36  1  0  0  0  0
 25 37  1  0  0  0  0
M  END
>  <ID>
654

>  <Parent ID>
395

>  <Generation>
3

>  <Parent Generation>
2

>  <Child No>
1

>  <Fitness>
0.97179

>  <SkelSpheres sim score>
0.97791

>  <FragFp sim score>
0.96571

$$$$
Compound 64
 OpenBabel11072204213D

 37 39  0  0  0  0  0  0  0  0999 V2000
    0.9494   -0.1647   -0.0332 Cl  0  0  0  0  0  0  0  0  0  0  0  0
    2.7381   -0.2468    0.0289 C   0  0  0  0  0  0  0  0  0  0  0  0
    3.3257   -1.0759   -1.1105 C   0  0  0  0  0  0  0  0  0  0  0  0
    2.8383   -2.3495   -1.0409 F   0  0  0  0  0  0  0  0  0  0  0  0
    2.8896   -0.5752   -2.3054 F   0  0  0  0  0  0  0  0  0  0  0  0
    4.8372   -1.0554   -1.0674 C   0  0  0  0  0  0  0  0  0  0  0  0
    5.6281   -2.1437   -1.0172 N   0  0  0  0  0  0  0  0  0  0  0  0
    5.5154    0.1389   -1.0899 N   0  0  0  0  0  0  0  0  0  0  0  0
    6.8814   -1.6058   -1.1141 N   0  0  0  0  0  0  0  0  0  0  0  0
    6.7805   -0.2061   -1.1345 C   0  0  0  0  0  0  0  0  0  0  0  0
    8.1387   -2.2491   -1.2181 C   0  0  0  0  0  0  0  0  0  0  0  0
    7.8748    0.6052   -1.1769 N   0  0  0  0  0  0  0  0  0  0  0  0
    8.2109   -3.6396   -1.1311 N   0  0  0  0  0  0  0  0  0  0  0  0
    9.2050   -1.4565   -1.4470 C   0  0  0  0  0  0  0  0  0  0  0  0
    9.0189    0.0120   -1.3223 C   0  0  0  0  0  0  0  0  0  0  0  0
    9.3566   -4.3914   -0.7924 C   0  0  0  0  0  0  0  0  0  0  0  0
   10.2837    0.8281   -1.2866 C   0  0  0  0  0  0  0  0  0  0  0  0
   10.3626   -3.8659    0.0355 C   0  0  0  0  0  0  0  0  0  0  0  0
    9.5983   -5.6241   -1.4050 C   0  0  0  0  0  0  0  0  0  0  0  0
   11.6095   -4.4807    0.1581 C   0  0  0  0  0  0  0  0  0  0  0  0
   10.8454   -6.2573   -1.2733 C   0  0  0  0  0  0  0  0  0  0  0  0
   11.8784   -5.6677   -0.5270 C   0  0  0  0  0  0  0  0  0  0  0  0
   13.2585   -6.2792   -0.4939 C   0  0  0  0  0  0  0  0  0  0  0  0
   14.1652   -5.5309    0.1972 F   0  0  0  0  0  0  0  0  0  0  0  0
   13.2769   -7.5125    0.0784 F   0  0  0  0  0  0  0  0  0  0  0  0
   13.7856   -6.4328   -1.7409 F   0  0  0  0  0  0  0  0  0  0  0  0
    2.9973   -0.6791    1.0001 H   0  0  0  0  0  0  0  0  0  0  0  0
    3.0939    0.7880   -0.0004 H   0  0  0  0  0  0  0  0  0  0  0  0
    7.3248   -4.1409   -1.2011 H   0  0  0  0  0  0  0  0  0  0  0  0
   10.2002   -1.8290   -1.6465 H   0  0  0  0  0  0  0  0  0  0  0  0
   10.0560    1.8964   -1.2829 H   0  0  0  0  0  0  0  0  0  0  0  0
   10.9063    0.5917   -2.1538 H   0  0  0  0  0  0  0  0  0  0  0  0
   10.8354    0.5794   -0.3736 H   0  0  0  0  0  0  0  0  0  0  0  0
   10.1955   -2.9403    0.5819 H   0  0  0  0  0  0  0  0  0  0  0  0
    8.8437   -6.0778   -2.0435 H   0  0  0  0  0  0  0  0  0  0  0  0
   12.3767   -4.0040    0.7667 H   0  0  0  0  0  0  0  0  0  0  0  0
   11.0233   -7.1972   -1.7954 H   0  0  0  0  0  0  0  0  0  0  0  0
  1  2  1  0  0  0  0
  2  3  1  0  0  0  0
  2 27  1  0  0  0  0
  2 28  1  0  0  0  0
  3  4  1  0  0  0  0
  3  5  1  0  0  0  0
  3  6  1  0  0  0  0
  6  7  2  0  0  0  0
  6  8  1  0  0  0  0
  7  9  1  0  0  0  0
  8 10  2  0  0  0  0
  9 11  1  0  0  0  0
  9 10  1  0  0  0  0
 10 12  1  0  0  0  0
 11 13  1  0  0  0  0
 11 14  2  0  0  0  0
 12 15  2  0  0  0  0
 13 16  1  0  0  0  0
 13 29  1  0  0  0  0
 14 15  1  0  0  0  0
 14 30  1  0  0  0  0
 15 17  1  0  0  0  0
 16 18  2  0  0  0  0
 16 19  1  0  0  0  0
 17 31  1  0  0  0  0
 17 32  1  0  0  0  0
 17 33  1  0  0  0  0
 18 20  1  0  0  0  0
 18 34  1  0  0  0  0
 19 21  2  0  0  0  0
 19 35  1  0  0  0  0
 20 22  2  0  0  0  0
 20 36  1  0  0  0  0
 21 22  1  0  0  0  0
 21 37  1  0  0  0  0
 22 23  1  0  0  0  0
 23 24  1  0  0  0  0
 23 25  1  0  0  0  0
 23 26  1  0  0  0  0
M  END
>  <ID>
657

>  <Parent ID>
654

>  <Generation>
4

>  <Parent Generation>
3

>  <Child No>
2

>  <Fitness>
0.96872

>  <SkelSpheres sim score>
0.98284

>  <FragFp sim score>
0.9548

$$$$
Compound 65
 OpenBabel11072204213D

 40 42  0  0  0  0  0  0  0  0999 V2000
    7.1678    1.5338    1.2282 Br  0  0  0  0  0  0  0  0  0  0  0  0
    5.6349    0.6395    0.4195 C   0  0  0  0  0  0  0  0  0  0  0  0
    6.1162   -0.3325   -0.6401 C   0  0  0  0  0  0  0  0  0  0  0  0
    4.9355   -1.0630   -1.2660 C   0  0  0  0  0  0  0  0  0  0  0  0
    4.2703   -1.7293   -0.2750 F   0  0  0  0  0  0  0  0  0  0  0  0
    4.0493   -0.1347   -1.7354 F   0  0  0  0  0  0  0  0  0  0  0  0
    5.3653   -1.9942   -2.3777 C   0  0  0  0  0  0  0  0  0  0  0  0
    5.2251   -3.3311   -2.3430 N   0  0  0  0  0  0  0  0  0  0  0  0
    5.9515   -1.5130   -3.5259 N   0  0  0  0  0  0  0  0  0  0  0  0
    5.6785   -3.7033   -3.5729 N   0  0  0  0  0  0  0  0  0  0  0  0
    6.1357   -2.5811   -4.2680 C   0  0  0  0  0  0  0  0  0  0  0  0
    5.6890   -4.9859   -4.1574 C   0  0  0  0  0  0  0  0  0  0  0  0
    6.6480   -2.6716   -5.5286 N   0  0  0  0  0  0  0  0  0  0  0  0
    5.1696   -6.0495   -3.4172 N   0  0  0  0  0  0  0  0  0  0  0  0
    6.2109   -5.1096   -5.3924 C   0  0  0  0  0  0  0  0  0  0  0  0
    6.6787   -3.8578   -6.0590 C   0  0  0  0  0  0  0  0  0  0  0  0
    4.0532   -6.8280   -3.8249 C   0  0  0  0  0  0  0  0  0  0  0  0
    7.2069   -4.0098   -7.4622 C   0  0  0  0  0  0  0  0  0  0  0  0
    3.3355   -6.5862   -5.0035 C   0  0  0  0  0  0  0  0  0  0  0  0
    3.6617   -7.9105   -3.0258 C   0  0  0  0  0  0  0  0  0  0  0  0
    2.2408   -7.3790   -5.3603 C   0  0  0  0  0  0  0  0  0  0  0  0
    2.5651   -8.7073   -3.3784 C   0  0  0  0  0  0  0  0  0  0  0  0
    1.8373   -8.4437   -4.5474 C   0  0  0  0  0  0  0  0  0  0  0  0
    0.6417   -9.2886   -4.9136 C   0  0  0  0  0  0  0  0  0  0  0  0
    0.0240   -8.8872   -6.0604 F   0  0  0  0  0  0  0  0  0  0  0  0
    0.9660  -10.5969   -5.1043 F   0  0  0  0  0  0  0  0  0  0  0  0
   -0.3200   -9.2761   -3.9499 F   0  0  0  0  0  0  0  0  0  0  0  0
    5.0045    1.4298    0.0025 H   0  0  0  0  0  0  0  0  0  0  0  0
    5.1054    0.1402    1.2352 H   0  0  0  0  0  0  0  0  0  0  0  0
    6.8058   -1.0603   -0.1943 H   0  0  0  0  0  0  0  0  0  0  0  0
    6.6744    0.2135   -1.4110 H   0  0  0  0  0  0  0  0  0  0  0  0
    5.0510   -5.7876   -2.4316 H   0  0  0  0  0  0  0  0  0  0  0  0
    6.2777   -6.0526   -5.9184 H   0  0  0  0  0  0  0  0  0  0  0  0
    7.5452   -3.0464   -7.8532 H   0  0  0  0  0  0  0  0  0  0  0  0
    6.4119   -4.3935   -8.1087 H   0  0  0  0  0  0  0  0  0  0  0  0
    8.0458   -4.7110   -7.4662 H   0  0  0  0  0  0  0  0  0  0  0  0
    3.5862   -5.7567   -5.6574 H   0  0  0  0  0  0  0  0  0  0  0  0
    4.2112   -8.1446   -2.1162 H   0  0  0  0  0  0  0  0  0  0  0  0
    1.6986   -7.1481   -6.2764 H   0  0  0  0  0  0  0  0  0  0  0  0
    2.2781   -9.5360   -2.7321 H   0  0  0  0  0  0  0  0  0  0  0  0
  1  2  1  0  0  0  0
  2  3  1  0  0  0  0
  2 28  1  0  0  0  0
  2 29  1  0  0  0  0
  3  4  1  0  0  0  0
  3 30  1  0  0  0  0
  3 31  1  0  0  0  0
  4  5  1  0  0  0  0
  4  6  1  0  0  0  0
  4  7  1  0  0  0  0
  7  8  2  0  0  0  0
  7  9  1  0  0  0  0
  8 10  1  0  0  0  0
  9 11  2  0  0  0  0
 10 12  1  0  0  0  0
 10 11  1  0  0  0  0
 11 13  1  0  0  0  0
 12 14  1  0  0  0  0
 12 15  2  0  0  0  0
 13 16  2  0  0  0  0
 14 17  1  0  0  0  0
 14 32  1  0  0  0  0
 15 16  1  0  0  0  0
 15 33  1  0  0  0  0
 16 18  1  0  0  0  0
 17 19  2  0  0  0  0
 17 20  1  0  0  0  0
 18 34  1  0  0  0  0
 18 35  1  0  0  0  0
 18 36  1  0  0  0  0
 19 21  1  0  0  0  0
 19 37  1  0  0  0  0
 20 22  2  0  0  0  0
 20 38  1  0  0  0  0
 21 23  2  0  0  0  0
 21 39  1  0  0  0  0
 22 23  1  0  0  0  0
 22 40  1  0  0  0  0
 23 24  1  0  0  0  0
 24 25  1  0  0  0  0
 24 26  1  0  0  0  0
 24 27  1  0  0  0  0
M  END
>  <ID>
661

>  <Parent ID>
653

>  <Generation>
4

>  <Parent Generation>
3

>  <Child No>
3

>  <Fitness>
0.9651

>  <SkelSpheres sim score>
0.95818

>  <FragFp sim score>
0.97207

$$$$
Compound 66
 OpenBabel11072204213D

 48 50  0  0  0  0  0  0  0  0999 V2000
    6.3965   -1.2938    0.7931 F   0  0  0  0  0  0  0  0  0  0  0  0
    6.1951   -0.5736   -0.3465 C   0  0  0  0  0  0  0  0  0  0  0  0
    5.6462    0.6069    0.0501 F   0  0  0  0  0  0  0  0  0  0  0  0
    7.4373   -0.2711   -0.8166 F   0  0  0  0  0  0  0  0  0  0  0  0
    5.3551   -1.2932   -1.3725 C   0  0  0  0  0  0  0  0  0  0  0  0
    4.8679   -2.5808   -1.1271 C   0  0  0  0  0  0  0  0  0  0  0  0
    5.0710   -0.6944   -2.6076 C   0  0  0  0  0  0  0  0  0  0  0  0
    4.1686   -3.2772   -2.1172 C   0  0  0  0  0  0  0  0  0  0  0  0
    4.3664   -1.3950   -3.5946 C   0  0  0  0  0  0  0  0  0  0  0  0
    3.9513   -2.7169   -3.3831 C   0  0  0  0  0  0  0  0  0  0  0  0
    3.2919   -3.4019   -4.4432 N   0  0  0  0  0  0  0  0  0  0  0  0
    2.9755   -4.7628   -4.3870 C   0  0  0  0  0  0  0  0  0  0  0  0
    3.6569   -5.6482   -5.2455 N   0  0  0  0  0  0  0  0  0  0  0  0
    2.0440   -5.2767   -3.5640 C   0  0  0  0  0  0  0  0  0  0  0  0
    4.6097   -5.3704   -6.1809 N   0  0  0  0  0  0  0  0  0  0  0  0
    3.4172   -7.0259   -5.2110 C   0  0  0  0  0  0  0  0  0  0  0  0
    1.8514   -6.7604   -3.5903 C   0  0  0  0  0  0  0  0  0  0  0  0
    4.9411   -6.5955   -6.6257 C   0  0  0  0  0  0  0  0  0  0  0  0
    2.5000   -7.5810   -4.3678 N   0  0  0  0  0  0  0  0  0  0  0  0
    4.2107   -7.6216   -6.0739 N   0  0  0  0  0  0  0  0  0  0  0  0
    0.8358   -7.3385   -2.6046 C   0  0  0  0  0  0  0  0  0  0  0  0
    6.0017   -6.8561   -7.6769 C   0  0  0  0  0  0  0  0  0  0  0  0
   -0.4890   -6.7108   -2.7823 N   0  0  0  0  0  0  0  0  0  0  0  0
    6.5775   -5.6981   -8.1222 F   0  0  0  0  0  0  0  0  0  0  0  0
    7.0317   -7.5826   -7.1419 F   0  0  0  0  0  0  0  0  0  0  0  0
    5.4814   -7.6231   -8.8919 C   0  0  0  0  0  0  0  0  0  0  0  0
   -1.0617   -7.0229   -4.0966 C   0  0  0  0  0  0  0  0  0  0  0  0
   -1.3996   -7.1849   -1.7345 C   0  0  0  0  0  0  0  0  0  0  0  0
    4.3853   -6.8840   -9.6457 C   0  0  0  0  0  0  0  0  0  0  0  0
    5.0484   -3.0664   -0.1689 H   0  0  0  0  0  0  0  0  0  0  0  0
    5.4148    0.3180   -2.8154 H   0  0  0  0  0  0  0  0  0  0  0  0
    3.8402   -4.2831   -1.8781 H   0  0  0  0  0  0  0  0  0  0  0  0
    4.1636   -0.9036   -4.5439 H   0  0  0  0  0  0  0  0  0  0  0  0
    3.7775   -3.1827   -5.3204 H   0  0  0  0  0  0  0  0  0  0  0  0
    1.4453   -4.6786   -2.8882 H   0  0  0  0  0  0  0  0  0  0  0  0
    1.2216   -7.1150   -1.6017 H   0  0  0  0  0  0  0  0  0  0  0  0
    0.7902   -8.4288   -2.7113 H   0  0  0  0  0  0  0  0  0  0  0  0
    5.1195   -8.6132   -8.5899 H   0  0  0  0  0  0  0  0  0  0  0  0
    6.3185   -7.7974   -9.5793 H   0  0  0  0  0  0  0  0  0  0  0  0
   -0.4261   -6.6534   -4.9084 H   0  0  0  0  0  0  0  0  0  0  0  0
   -2.0269   -6.5177   -4.2155 H   0  0  0  0  0  0  0  0  0  0  0  0
   -1.2132   -8.0985   -4.2382 H   0  0  0  0  0  0  0  0  0  0  0  0
   -1.0077   -6.9429   -0.7403 H   0  0  0  0  0  0  0  0  0  0  0  0
   -1.5602   -8.2683   -1.7868 H   0  0  0  0  0  0  0  0  0  0  0  0
   -2.3725   -6.6881   -1.8179 H   0  0  0  0  0  0  0  0  0  0  0  0
    3.4992   -6.7367   -9.0207 H   0  0  0  0  0  0  0  0  0  0  0  0
    4.0793   -7.4586  -10.5255 H   0  0  0  0  0  0  0  0  0  0  0  0
    4.7350   -5.9039   -9.9850 H   0  0  0  0  0  0  0  0  0  0  0  0
  1  2  1  0  0  0  0
  2  3  1  0  0  0  0
  2  4  1  0  0  0  0
  2  5  1  0  0  0  0
  5  6  2  0  0  0  0
  5  7  1  0  0  0  0
  6  8  1  0  0  0  0
  6 30  1  0  0  0  0
  7  9  2  0  0  0  0
  7 31  1  0  0  0  0
  8 10  2  0  0  0  0
  8 32  1  0  0  0  0
  9 10  1  0  0  0  0
  9 33  1  0  0  0  0
 10 11  1  0  0  0  0
 11 12  1  0  0  0  0
 11 34  1  0  0  0  0
 12 13  1  0  0  0  0
 12 14  2  0  0  0  0
 13 15  1  0  0  0  0
 13 16  1  0  0  0  0
 14 17  1  0  0  0  0
 14 35  1  0  0  0  0
 15 18  2  0  0  0  0
 16 19  1  0  0  0  0
 16 20  2  0  0  0  0
 17 21  1  0  0  0  0
 17 19  2  0  0  0  0
 18 22  1  0  0  0  0
 18 20  1  0  0  0  0
 21 23  1  0  0  0  0
 21 36  1  0  0  0  0
 21 37  1  0  0  0  0
 22 24  1  0  0  0  0
 22 25  1  0  0  0  0
 22 26  1  0  0  0  0
 23 27  1  0  0  0  0
 23 28  1  0  0  0  0
 26 29  1  0  0  0  0
 26 38  1  0  0  0  0
 26 39  1  0  0  0  0
 27 40  1  0  0  0  0
 27 41  1  0  0  0  0
 27 42  1  0  0  0  0
 28 43  1  0  0  0  0
 28 44  1  0  0  0  0
 28 45  1  0  0  0  0
 29 46  1  0  0  0  0
 29 47  1  0  0  0  0
 29 48  1  0  0  0  0
M  END
>  <ID>
663

>  <Parent ID>
644

>  <Generation>
3

>  <Parent Generation>
2

>  <Child No>
8

>  <Fitness>
0.95222

>  <SkelSpheres sim score>
0.92757

>  <FragFp sim score>
0.97753

$$$$
Compound 67
 OpenBabel11072204213D

 39 41  0  0  0  0  0  0  0  0999 V2000
    3.9177   -1.3069    0.7147 F   0  0  0  0  0  0  0  0  0  0  0  0
    3.3534   -0.2461    0.0701 C   0  0  0  0  0  0  0  0  0  0  0  0
    2.0205   -0.3060    0.3666 F   0  0  0  0  0  0  0  0  0  0  0  0
    3.8186    0.8686    0.7029 F   0  0  0  0  0  0  0  0  0  0  0  0
    3.6036   -0.2217   -1.4331 C   0  0  0  0  0  0  0  0  0  0  0  0
    4.3585   -1.2018   -1.9933 N   0  0  0  0  0  0  0  0  0  0  0  0
    2.9995    0.7665   -2.2163 C   0  0  0  0  0  0  0  0  0  0  0  0
    4.4365   -1.2321   -3.3443 C   0  0  0  0  0  0  0  0  0  0  0  0
    3.0900    0.6949   -3.6129 C   0  0  0  0  0  0  0  0  0  0  0  0
    3.7761   -0.3574   -4.2132 C   0  0  0  0  0  0  0  0  0  0  0  0
    3.6570   -0.6003   -5.5943 N   0  0  0  0  0  0  0  0  0  0  0  0
    3.6256   -1.8563   -6.2017 C   0  0  0  0  0  0  0  0  0  0  0  0
    3.9618   -1.9672   -7.5708 N   0  0  0  0  0  0  0  0  0  0  0  0
    3.2338   -2.9848   -5.5780 C   0  0  0  0  0  0  0  0  0  0  0  0
    4.2676   -0.9851   -8.4649 N   0  0  0  0  0  0  0  0  0  0  0  0
    3.9651   -3.2100   -8.2196 C   0  0  0  0  0  0  0  0  0  0  0  0
    3.3881   -4.2707   -6.3094 C   0  0  0  0  0  0  0  0  0  0  0  0
    4.4214   -1.6743   -9.6122 C   0  0  0  0  0  0  0  0  0  0  0  0
    3.7156   -4.3772   -7.5605 N   0  0  0  0  0  0  0  0  0  0  0  0
    4.2429   -3.0318   -9.4881 N   0  0  0  0  0  0  0  0  0  0  0  0
    3.1882   -5.5302   -5.5042 C   0  0  0  0  0  0  0  0  0  0  0  0
    4.6810   -1.0465  -10.9651 C   0  0  0  0  0  0  0  0  0  0  0  0
    4.7780    0.3148  -10.8915 F   0  0  0  0  0  0  0  0  0  0  0  0
    5.8856   -1.4649  -11.4609 F   0  0  0  0  0  0  0  0  0  0  0  0
    3.6092   -1.3942  -12.0010 C   0  0  0  0  0  0  0  0  0  0  0  0
    2.2238   -0.8843  -11.6291 C   0  0  0  0  0  0  0  0  0  0  0  0
    2.4163    1.5564   -1.7493 H   0  0  0  0  0  0  0  0  0  0  0  0
    5.0494   -2.0421   -3.7265 H   0  0  0  0  0  0  0  0  0  0  0  0
    2.5597    1.4250   -4.2184 H   0  0  0  0  0  0  0  0  0  0  0  0
    3.7686    0.1957   -6.2230 H   0  0  0  0  0  0  0  0  0  0  0  0
    2.8527   -3.0135   -4.5657 H   0  0  0  0  0  0  0  0  0  0  0  0
    3.0375   -5.3050   -4.4437 H   0  0  0  0  0  0  0  0  0  0  0  0
    4.0811   -6.1572   -5.5963 H   0  0  0  0  0  0  0  0  0  0  0  0
    2.3204   -6.0734   -5.8821 H   0  0  0  0  0  0  0  0  0  0  0  0
    3.5717   -2.4791  -12.1574 H   0  0  0  0  0  0  0  0  0  0  0  0
    3.8955   -0.9543  -12.9638 H   0  0  0  0  0  0  0  0  0  0  0  0
    1.8628   -1.3394  -10.7017 H   0  0  0  0  0  0  0  0  0  0  0  0
    1.5070   -1.1313  -12.4187 H   0  0  0  0  0  0  0  0  0  0  0  0
    2.2268    0.2024  -11.5010 H   0  0  0  0  0  0  0  0  0  0  0  0
  1  2  1  0  0  0  0
  2  3  1  0  0  0  0
  2  4  1  0  0  0  0
  2  5  1  0  0  0  0
  5  6  2  0  0  0  0
  5  7  1  0  0  0  0
  6  8  1  0  0  0  0
  7  9  2  0  0  0  0
  7 27  1  0  0  0  0
  8 10  2  0  0  0  0
  8 28  1  0  0  0  0
  9 10  1  0  0  0  0
  9 29  1  0  0  0  0
 10 11  1  0  0  0  0
 11 12  1  0  0  0  0
 11 30  1  0  0  0  0
 12 13  1  0  0  0  0
 12 14  2  0  0  0  0
 13 15  1  0  0  0  0
 13 16  1  0  0  0  0
 14 17  1  0  0  0  0
 14 31  1  0  0  0  0
 15 18  2  0  0  0  0
 16 19  1  0  0  0  0
 16 20  2  0  0  0  0
 17 21  1  0  0  0  0
 17 19  2  0  0  0  0
 18 22  1  0  0  0  0
 18 20  1  0  0  0  0
 21 32  1  0  0  0  0
 21 33  1  0  0  0  0
 21 34  1  0  0  0  0
 22 23  1  0  0  0  0
 22 24  1  0  0  0  0
 22 25  1  0  0  0  0
 25 26  1  0  0  0  0
 25 35  1  0  0  0  0
 25 36  1  0  0  0  0
 26 37  1  0  0  0  0
 26 38  1  0  0  0  0
 26 39  1  0  0  0  0
M  END
>  <ID>
696

>  <Parent ID>
1

>  <Generation>
1

>  <Parent Generation>
0

>  <Child No>
7

>  <Fitness>
0.95628

>  <SkelSpheres sim score>
0.95257

>  <FragFp sim score>
0.96

$$$$
Compound 68
 OpenBabel11072204213D

 42 44  0  0  0  0  0  0  0  0999 V2000
    2.8812   -0.2328   -1.3031 F   0  0  0  0  0  0  0  0  0  0  0  0
    2.3803   -0.1238   -0.0356 C   0  0  0  0  0  0  0  0  0  0  0  0
    1.0209   -0.0770   -0.1761 F   0  0  0  0  0  0  0  0  0  0  0  0
    2.7851   -1.3203    0.8023 C   0  0  0  0  0  0  0  0  0  0  0  0
    2.8465    1.2101    0.5488 C   0  0  0  0  0  0  0  0  0  0  0  0
    2.5047   -2.5914    0.4604 N   0  0  0  0  0  0  0  0  0  0  0  0
    3.4656   -1.1916    1.9932 N   0  0  0  0  0  0  0  0  0  0  0  0
    2.4052    2.3968   -0.2970 C   0  0  0  0  0  0  0  0  0  0  0  0
    3.0262   -3.2962    1.5001 N   0  0  0  0  0  0  0  0  0  0  0  0
    3.6186   -2.4269    2.4152 C   0  0  0  0  0  0  0  0  0  0  0  0
    2.9806   -4.6841    1.7272 C   0  0  0  0  0  0  0  0  0  0  0  0
    4.2280   -2.8775    3.5479 N   0  0  0  0  0  0  0  0  0  0  0  0
    2.3358   -5.4863    0.7773 N   0  0  0  0  0  0  0  0  0  0  0  0
    3.5625   -5.1552    2.8448 C   0  0  0  0  0  0  0  0  0  0  0  0
    4.2208   -4.1672    3.7555 C   0  0  0  0  0  0  0  0  0  0  0  0
    1.2104   -6.2874    1.1130 C   0  0  0  0  0  0  0  0  0  0  0  0
    4.8564   -4.6163    4.8785 N   0  0  0  0  0  0  0  0  0  0  0  0
    0.3174   -5.9369    2.1322 C   0  0  0  0  0  0  0  0  0  0  0  0
    0.9077   -7.3949    0.3110 C   0  0  0  0  0  0  0  0  0  0  0  0
   -0.8178   -6.7103    2.3883 C   0  0  0  0  0  0  0  0  0  0  0  0
   -0.2281   -8.1754    0.5681 C   0  0  0  0  0  0  0  0  0  0  0  0
   -1.0989   -7.8449    1.6169 C   0  0  0  0  0  0  0  0  0  0  0  0
   -2.3140   -8.6936    1.9258 C   0  0  0  0  0  0  0  0  0  0  0  0
   -3.3326   -7.9604    2.4684 F   0  0  0  0  0  0  0  0  0  0  0  0
   -2.8414   -9.2746    0.8099 F   0  0  0  0  0  0  0  0  0  0  0  0
   -1.9727   -9.8022    2.9112 C   0  0  0  0  0  0  0  0  0  0  0  0
    3.9406    1.2235    0.6228 H   0  0  0  0  0  0  0  0  0  0  0  0
    2.4432    1.3388    1.5608 H   0  0  0  0  0  0  0  0  0  0  0  0
    2.8100    2.3312   -1.3117 H   0  0  0  0  0  0  0  0  0  0  0  0
    2.7612    3.3308    0.1493 H   0  0  0  0  0  0  0  0  0  0  0  0
    1.3140    2.4495   -0.3633 H   0  0  0  0  0  0  0  0  0  0  0  0
    2.0786   -4.9134   -0.0377 H   0  0  0  0  0  0  0  0  0  0  0  0
    3.5863   -6.2061    3.0971 H   0  0  0  0  0  0  0  0  0  0  0  0
    5.0722   -3.8809    5.5445 H   0  0  0  0  0  0  0  0  0  0  0  0
    4.5476   -5.4832    5.2989 H   0  0  0  0  0  0  0  0  0  0  0  0
    0.4756   -5.0434    2.7291 H   0  0  0  0  0  0  0  0  0  0  0  0
    1.5625   -7.6633   -0.5139 H   0  0  0  0  0  0  0  0  0  0  0  0
   -1.4954   -6.4103    3.1866 H   0  0  0  0  0  0  0  0  0  0  0  0
   -0.4342   -9.0380   -0.0632 H   0  0  0  0  0  0  0  0  0  0  0  0
   -1.5609   -9.4005    3.8432 H   0  0  0  0  0  0  0  0  0  0  0  0
   -1.2529  -10.5083    2.4844 H   0  0  0  0  0  0  0  0  0  0  0  0
   -2.8766  -10.3648    3.1675 H   0  0  0  0  0  0  0  0  0  0  0  0
  1  2  1  0  0  0  0
  2  3  1  0  0  0  0
  2  4  1  0  0  0  0
  2  5  1  0  0  0  0
  4  6  2  0  0  0  0
  4  7  1  0  0  0  0
  5  8  1  0  0  0  0
  5 27  1  0  0  0  0
  5 28  1  0  0  0  0
  6  9  1  0  0  0  0
  7 10  2  0  0  0  0
  8 29  1  0  0  0  0
  8 30  1  0  0  0  0
  8 31  1  0  0  0  0
  9 11  1  0  0  0  0
  9 10  1  0  0  0  0
 10 12  1  0  0  0  0
 11 13  1  0  0  0  0
 11 14  2  0  0  0  0
 12 15  2  0  0  0  0
 13 16  1  0  0  0  0
 13 32  1  0  0  0  0
 14 15  1  0  0  0  0
 14 33  1  0  0  0  0
 15 17  1  0  0  0  0
 16 18  2  0  0  0  0
 16 19  1  0  0  0  0
 17 34  1  0  0  0  0
 17 35  1  0  0  0  0
 18 20  1  0  0  0  0
 18 36  1  0  0  0  0
 19 21  2  0  0  0  0
 19 37  1  0  0  0  0
 20 22  2  0  0  0  0
 20 38  1  0  0  0  0
 21 22  1  0  0  0  0
 21 39  1  0  0  0  0
 22 23  1  0  0  0  0
 23 24  1  0  0  0  0
 23 25  1  0  0  0  0
 23 26  1  0  0  0  0
 26 40  1  0  0  0  0
 26 41  1  0  0  0  0
 26 42  1  0  0  0  0
M  END
>  <ID>
702

>  <Parent ID>
498

>  <Generation>
3

>  <Parent Generation>
2

>  <Child No>
5

>  <Fitness>
0.95698

>  <SkelSpheres sim score>
0.93686

>  <FragFp sim score>
0.97753

$$$$
Compound 69
 OpenBabel11072204213D

 40 42  0  0  0  0  0  0  0  0999 V2000
    1.0603   -0.8334   -0.1285 Cl  0  0  0  0  0  0  0  0  0  0  0  0
    2.7546   -0.5179   -0.0362 C   0  0  0  0  0  0  0  0  0  0  0  0
    3.5222   -1.5569   -0.0959 N   0  0  0  0  0  0  0  0  0  0  0  0
    3.2183    0.8902    0.0747 C   0  0  0  0  0  0  0  0  0  0  0  0
    4.8601   -1.3118   -0.0541 C   0  0  0  0  0  0  0  0  0  0  0  0
    4.5442    1.1245    0.0224 C   0  0  0  0  0  0  0  0  0  0  0  0
    5.8391   -2.1834   -0.0615 N   0  0  0  0  0  0  0  0  0  0  0  0
    5.3924   -0.0143   -0.0066 N   0  0  0  0  0  0  0  0  0  0  0  0
    5.1372    2.3940    0.0573 N   0  0  0  0  0  0  0  0  0  0  0  0
    6.9776   -1.4191   -0.0178 C   0  0  0  0  0  0  0  0  0  0  0  0
    6.7562   -0.0886   -0.0012 N   0  0  0  0  0  0  0  0  0  0  0  0
    4.6724    3.6117   -0.5010 C   0  0  0  0  0  0  0  0  0  0  0  0
    8.3381   -2.0858   -0.0466 C   0  0  0  0  0  0  0  0  0  0  0  0
    3.5348    3.7071   -1.3116 C   0  0  0  0  0  0  0  0  0  0  0  0
    5.3261    4.8131   -0.1790 C   0  0  0  0  0  0  0  0  0  0  0  0
    9.3610   -1.1816   -0.0363 F   0  0  0  0  0  0  0  0  0  0  0  0
    8.5161   -2.8422    1.0818 F   0  0  0  0  0  0  0  0  0  0  0  0
    8.5225   -3.0143   -1.2502 C   0  0  0  0  0  0  0  0  0  0  0  0
    3.0778    4.9341   -1.8009 C   0  0  0  0  0  0  0  0  0  0  0  0
    4.8836    6.0511   -0.6820 C   0  0  0  0  0  0  0  0  0  0  0  0
    8.4776   -2.2837   -2.5844 C   0  0  0  0  0  0  0  0  0  0  0  0
    3.7535    6.1213   -1.5072 C   0  0  0  0  0  0  0  0  0  0  0  0
    3.2592    7.4234   -2.1051 C   0  0  0  0  0  0  0  0  0  0  0  0
    1.9003    7.4284   -2.2650 F   0  0  0  0  0  0  0  0  0  0  0  0
    3.5296    8.5047   -1.3180 F   0  0  0  0  0  0  0  0  0  0  0  0
    3.8718    7.6770   -3.4760 C   0  0  0  0  0  0  0  0  0  0  0  0
    2.4650    1.6586    0.1753 H   0  0  0  0  0  0  0  0  0  0  0  0
    6.1537    2.3634    0.1704 H   0  0  0  0  0  0  0  0  0  0  0  0
    2.9816    2.8287   -1.6210 H   0  0  0  0  0  0  0  0  0  0  0  0
    6.1944    4.8051    0.4775 H   0  0  0  0  0  0  0  0  0  0  0  0
    7.7627   -3.8060   -1.2402 H   0  0  0  0  0  0  0  0  0  0  0  0
    9.4915   -3.5203   -1.1612 H   0  0  0  0  0  0  0  0  0  0  0  0
    2.1829    4.9565   -2.4211 H   0  0  0  0  0  0  0  0  0  0  0  0
    5.4219    6.9611   -0.4179 H   0  0  0  0  0  0  0  0  0  0  0  0
    7.5059   -1.8081   -2.7490 H   0  0  0  0  0  0  0  0  0  0  0  0
    8.6462   -2.9871   -3.4062 H   0  0  0  0  0  0  0  0  0  0  0  0
    9.2525   -1.5127   -2.6335 H   0  0  0  0  0  0  0  0  0  0  0  0
    3.6978    6.8372   -4.1577 H   0  0  0  0  0  0  0  0  0  0  0  0
    4.9491    7.8556   -3.4048 H   0  0  0  0  0  0  0  0  0  0  0  0
    3.4171    8.5636   -3.9323 H   0  0  0  0  0  0  0  0  0  0  0  0
  1  2  1  0  0  0  0
  2  3  2  0  0  0  0
  2  4  1  0  0  0  0
  3  5  1  0  0  0  0
  4  6  2  0  0  0  0
  4 27  1  0  0  0  0
  5  7  2  0  0  0  0
  5  8  1  0  0  0  0
  6  9  1  0  0  0  0
  6  8  1  0  0  0  0
  7 10  1  0  0  0  0
  8 11  1  0  0  0  0
  9 12  1  0  0  0  0
  9 28  1  0  0  0  0
 10 13  1  0  0  0  0
 10 11  2  0  0  0  0
 12 14  2  0  0  0  0
 12 15  1  0  0  0  0
 13 16  1  0  0  0  0
 13 17  1  0  0  0  0
 13 18  1  0  0  0  0
 14 19  1  0  0  0  0
 14 29  1  0  0  0  0
 15 20  2  0  0  0  0
 15 30  1  0  0  0  0
 18 21  1  0  0  0  0
 18 31  1  0  0  0  0
 18 32  1  0  0  0  0
 19 22  2  0  0  0  0
 19 33  1  0  0  0  0
 20 22  1  0  0  0  0
 20 34  1  0  0  0  0
 21 35  1  0  0  0  0
 21 36  1  0  0  0  0
 21 37  1  0  0  0  0
 22 23  1  0  0  0  0
 23 24  1  0  0  0  0
 23 25  1  0  0  0  0
 23 26  1  0  0  0  0
 26 38  1  0  0  0  0
 26 39  1  0  0  0  0
 26 40  1  0  0  0  0
M  END
>  <ID>
706

>  <Parent ID>
498

>  <Generation>
3

>  <Parent Generation>
2

>  <Child No>
6

>  <Fitness>
0.95698

>  <SkelSpheres sim score>
0.93686

>  <FragFp sim score>
0.97753

$$$$
Compound 70
 OpenBabel11072204213D

 41 43  0  0  0  0  0  0  0  0999 V2000
    7.4769    0.6285   -0.7151 F   0  0  0  0  0  0  0  0  0  0  0  0
    6.7239    1.7551   -0.5669 C   0  0  0  0  0  0  0  0  0  0  0  0
    6.1687    1.6720    0.6722 F   0  0  0  0  0  0  0  0  0  0  0  0
    7.6114    2.7875   -0.5138 F   0  0  0  0  0  0  0  0  0  0  0  0
    5.6999    1.9418   -1.6588 C   0  0  0  0  0  0  0  0  0  0  0  0
    5.5920    1.0196   -2.7022 C   0  0  0  0  0  0  0  0  0  0  0  0
    4.8612    3.0682   -1.6740 C   0  0  0  0  0  0  0  0  0  0  0  0
    4.7313    1.2597   -3.7767 C   0  0  0  0  0  0  0  0  0  0  0  0
    3.9956    3.2994   -2.7523 C   0  0  0  0  0  0  0  0  0  0  0  0
    3.9657    2.4321   -3.8528 C   0  0  0  0  0  0  0  0  0  0  0  0
    3.1355    2.7610   -4.9653 N   0  0  0  0  0  0  0  0  0  0  0  0
    3.1714    2.0576   -6.1735 C   0  0  0  0  0  0  0  0  0  0  0  0
    3.5674    2.7330   -7.3485 N   0  0  0  0  0  0  0  0  0  0  0  0
    2.8369    0.7558   -6.2839 C   0  0  0  0  0  0  0  0  0  0  0  0
    3.8690    4.0516   -7.5261 N   0  0  0  0  0  0  0  0  0  0  0  0
    3.6946    2.0539   -8.5651 C   0  0  0  0  0  0  0  0  0  0  0  0
    3.1064    0.0977   -7.5924 C   0  0  0  0  0  0  0  0  0  0  0  0
    4.1459    4.1115   -8.8446 C   0  0  0  0  0  0  0  0  0  0  0  0
    3.4930    0.7104   -8.6713 N   0  0  0  0  0  0  0  0  0  0  0  0
    4.0513    2.9045   -9.4980 N   0  0  0  0  0  0  0  0  0  0  0  0
    2.9712   -1.4030   -7.6388 C   0  0  0  0  0  0  0  0  0  0  0  0
    4.5192    5.3805   -9.5915 C   0  0  0  0  0  0  0  0  0  0  0  0
    3.9614    6.4794   -8.9996 F   0  0  0  0  0  0  0  0  0  0  0  0
    5.8717    5.5799   -9.5494 F   0  0  0  0  0  0  0  0  0  0  0  0
    4.0721    5.3313  -11.0665 C   0  0  0  0  0  0  0  0  0  0  0  0
    4.3713    6.5846  -11.8570 C   0  0  0  0  0  0  0  0  0  0  0  0
    3.4403    7.3234  -12.4788 C   0  0  0  0  0  0  0  0  0  0  0  0
    6.2011    0.1162   -2.7067 H   0  0  0  0  0  0  0  0  0  0  0  0
    4.8997    3.7852   -0.8559 H   0  0  0  0  0  0  0  0  0  0  0  0
    4.7274    0.5206   -4.5694 H   0  0  0  0  0  0  0  0  0  0  0  0
    3.3671    4.1869   -2.7369 H   0  0  0  0  0  0  0  0  0  0  0  0
    3.1982    3.7717   -5.1370 H   0  0  0  0  0  0  0  0  0  0  0  0
    2.4705    0.1685   -5.4525 H   0  0  0  0  0  0  0  0  0  0  0  0
    2.7469   -1.8139   -6.6510 H   0  0  0  0  0  0  0  0  0  0  0  0
    3.9151   -1.8357   -7.9859 H   0  0  0  0  0  0  0  0  0  0  0  0
    2.1725   -1.6766   -8.3323 H   0  0  0  0  0  0  0  0  0  0  0  0
    2.9959    5.1194  -11.1093 H   0  0  0  0  0  0  0  0  0  0  0  0
    4.5828    4.5032  -11.5736 H   0  0  0  0  0  0  0  0  0  0  0  0
    5.4179    6.8759  -11.9338 H   0  0  0  0  0  0  0  0  0  0  0  0
    2.3858    7.0664  -12.4416 H   0  0  0  0  0  0  0  0  0  0  0  0
    3.7204    8.2044  -13.0449 H   0  0  0  0  0  0  0  0  0  0  0  0
  1  2  1  0  0  0  0
  2  3  1  0  0  0  0
  2  4  1  0  0  0  0
  2  5  1  0  0  0  0
  5  6  2  0  0  0  0
  5  7  1  0  0  0  0
  6  8  1  0  0  0  0
  6 28  1  0  0  0  0
  7  9  2  0  0  0  0
  7 29  1  0  0  0  0
  8 10  2  0  0  0  0
  8 30  1  0  0  0  0
  9 10  1  0  0  0  0
  9 31  1  0  0  0  0
 10 11  1  0  0  0  0
 11 12  1  0  0  0  0
 11 32  1  0  0  0  0
 12 13  1  0  0  0  0
 12 14  2  0  0  0  0
 13 15  1  0  0  0  0
 13 16  1  0  0  0  0
 14 17  1  0  0  0  0
 14 33  1  0  0  0  0
 15 18  2  0  0  0  0
 16 19  1  0  0  0  0
 16 20  2  0  0  0  0
 17 21  1  0  0  0  0
 17 19  2  0  0  0  0
 18 22  1  0  0  0  0
 18 20  1  0  0  0  0
 21 34  1  0  0  0  0
 21 35  1  0  0  0  0
 21 36  1  0  0  0  0
 22 23  1  0  0  0  0
 22 24  1  0  0  0  0
 22 25  1  0  0  0  0
 25 26  1  0  0  0  0
 25 37  1  0  0  0  0
 25 38  1  0  0  0  0
 26 27  2  0  0  0  0
 26 39  1  0  0  0  0
 27 40  1  0  0  0  0
 27 41  1  0  0  0  0
M  END
>  <ID>
723

>  <Parent ID>
3

>  <Generation>
2

>  <Parent Generation>
1

>  <Child No>
1

>  <Fitness>
0.97152

>  <SkelSpheres sim score>
0.94927

>  <FragFp sim score>
0.99429

$$$$
Compound 71
 OpenBabel11072204213D

 44 46  0  0  0  0  0  0  0  0999 V2000
    0.8454    0.0284   -0.0006 S   0  0  0  0  0  0  0  0  0  0  0  0
    0.3410    0.6641   -1.6348 C   0  0  0  0  0  0  0  0  0  0  0  0
    0.0737   -1.6137   -0.0639 C   0  0  0  0  0  0  0  0  0  0  0  0
   -1.1698    0.7977   -1.6785 C   0  0  0  0  0  0  0  0  0  0  0  0
   -1.8575   -0.1708   -2.2121 N   0  0  0  0  0  0  0  0  0  0  0  0
   -1.7624    2.0188   -1.0467 C   0  0  0  0  0  0  0  0  0  0  0  0
   -3.2125   -0.0744   -2.1249 C   0  0  0  0  0  0  0  0  0  0  0  0
   -3.1057    2.0763   -0.9677 C   0  0  0  0  0  0  0  0  0  0  0  0
   -4.1289   -0.9153   -2.5561 N   0  0  0  0  0  0  0  0  0  0  0  0
   -3.8403    0.9925   -1.4823 N   0  0  0  0  0  0  0  0  0  0  0  0
   -3.8130    3.1265   -0.3895 N   0  0  0  0  0  0  0  0  0  0  0  0
   -5.3171   -0.3425   -2.1738 C   0  0  0  0  0  0  0  0  0  0  0  0
   -5.1866    0.8037   -1.4824 N   0  0  0  0  0  0  0  0  0  0  0  0
   -3.7084    4.4801   -0.7897 C   0  0  0  0  0  0  0  0  0  0  0  0
   -6.6458   -0.9876   -2.4964 C   0  0  0  0  0  0  0  0  0  0  0  0
   -3.0144    4.8845   -1.9377 C   0  0  0  0  0  0  0  0  0  0  0  0
   -4.2733    5.4688    0.0246 C   0  0  0  0  0  0  0  0  0  0  0  0
   -7.6987   -0.2496   -2.0308 F   0  0  0  0  0  0  0  0  0  0  0  0
   -6.8249   -1.0473   -3.8521 F   0  0  0  0  0  0  0  0  0  0  0  0
   -6.7816   -2.4078   -1.9509 C   0  0  0  0  0  0  0  0  0  0  0  0
   -2.8385    6.2375   -2.2365 C   0  0  0  0  0  0  0  0  0  0  0  0
   -4.0973    6.8263   -0.2685 C   0  0  0  0  0  0  0  0  0  0  0  0
   -6.7400   -2.4767   -0.4314 C   0  0  0  0  0  0  0  0  0  0  0  0
   -3.3519    7.2241   -1.3878 C   0  0  0  0  0  0  0  0  0  0  0  0
   -3.0781    8.6853   -1.6447 C   0  0  0  0  0  0  0  0  0  0  0  0
   -2.3129    8.9080   -2.7504 F   0  0  0  0  0  0  0  0  0  0  0  0
   -4.2139    9.4128   -1.8222 F   0  0  0  0  0  0  0  0  0  0  0  0
   -2.4123    9.2727   -0.6114 F   0  0  0  0  0  0  0  0  0  0  0  0
    0.6951   -0.0020   -2.4272 H   0  0  0  0  0  0  0  0  0  0  0  0
    0.8009    1.6458   -1.7862 H   0  0  0  0  0  0  0  0  0  0  0  0
    0.3007   -2.1476    0.8625 H   0  0  0  0  0  0  0  0  0  0  0  0
    0.4695   -2.1893   -0.9043 H   0  0  0  0  0  0  0  0  0  0  0  0
   -1.0134   -1.5402   -0.1406 H   0  0  0  0  0  0  0  0  0  0  0  0
   -1.1086    2.7919   -0.6631 H   0  0  0  0  0  0  0  0  0  0  0  0
   -4.7871    2.8777   -0.1907 H   0  0  0  0  0  0  0  0  0  0  0  0
   -2.6019    4.1549   -2.6287 H   0  0  0  0  0  0  0  0  0  0  0  0
   -4.8258    5.1893    0.9193 H   0  0  0  0  0  0  0  0  0  0  0  0
   -6.0015   -3.0536   -2.3718 H   0  0  0  0  0  0  0  0  0  0  0  0
   -7.7396   -2.8192   -2.2910 H   0  0  0  0  0  0  0  0  0  0  0  0
   -2.2795    6.5129   -3.1297 H   0  0  0  0  0  0  0  0  0  0  0  0
   -4.5223    7.5750    0.3988 H   0  0  0  0  0  0  0  0  0  0  0  0
   -5.7706   -2.1513   -0.0417 H   0  0  0  0  0  0  0  0  0  0  0  0
   -6.9053   -3.5059   -0.0974 H   0  0  0  0  0  0  0  0  0  0  0  0
   -7.5189   -1.8483    0.0118 H   0  0  0  0  0  0  0  0  0  0  0  0
  1  2  1  0  0  0  0
  1  3  1  0  0  0  0
  2  4  1  0  0  0  0
  2 29  1  0  0  0  0
  2 30  1  0  0  0  0
  3 31  1  0  0  0  0
  3 32  1  0  0  0  0
  3 33  1  0  0  0  0
  4  5  2  0  0  0  0
  4  6  1  0  0  0  0
  5  7  1  0  0  0  0
  6  8  2  0  0  0  0
  6 34  1  0  0  0  0
  7  9  2  0  0  0  0
  7 10  1  0  0  0  0
  8 11  1  0  0  0  0
  8 10  1  0  0  0  0
  9 12  1  0  0  0  0
 10 13  1  0  0  0  0
 11 14  1  0  0  0  0
 11 35  1  0  0  0  0
 12 15  1  0  0  0  0
 12 13  2  0  0  0  0
 14 16  2  0  0  0  0
 14 17  1  0  0  0  0
 15 18  1  0  0  0  0
 15 19  1  0  0  0  0
 15 20  1  0  0  0  0
 16 21  1  0  0  0  0
 16 36  1  0  0  0  0
 17 22  2  0  0  0  0
 17 37  1  0  0  0  0
 20 23  1  0  0  0  0
 20 38  1  0  0  0  0
 20 39  1  0  0  0  0
 21 24  2  0  0  0  0
 21 40  1  0  0  0  0
 22 24  1  0  0  0  0
 22 41  1  0  0  0  0
 23 42  1  0  0  0  0
 23 43  1  0  0  0  0
 23 44  1  0  0  0  0
 24 25  1  0  0  0  0
 25 26  1  0  0  0  0
 25 27  1  0  0  0  0
 25 28  1  0  0  0  0
M  END
>  <ID>
740

>  <Parent ID>
54

>  <Generation>
2

>  <Parent Generation>
1

>  <Child No>
4

>  <Fitness>
0.9624

>  <SkelSpheres sim score>
0.93686

>  <FragFp sim score>
0.98864

$$$$
Compound 72
 OpenBabel11072204213D

 40 42  0  0  0  0  0  0  0  0999 V2000
    0.9697    1.5651   -0.1728 Cl  0  0  0  0  0  0  0  0  0  0  0  0
    2.7584    1.4959   -0.0841 C   0  0  0  0  0  0  0  0  0  0  0  0
    3.3651    0.6566   -1.2055 C   0  0  0  0  0  0  0  0  0  0  0  0
    2.8621   -0.6115   -1.1444 F   0  0  0  0  0  0  0  0  0  0  0  0
    2.9607    1.1585   -2.4116 F   0  0  0  0  0  0  0  0  0  0  0  0
    4.8769    0.6574   -1.1341 C   0  0  0  0  0  0  0  0  0  0  0  0
    5.6501   -0.4445   -1.0911 N   0  0  0  0  0  0  0  0  0  0  0  0
    5.5745    1.8416   -1.1398 N   0  0  0  0  0  0  0  0  0  0  0  0
    6.9076    0.0748   -1.2057 N   0  0  0  0  0  0  0  0  0  0  0  0
    6.8325    1.4766   -1.2036 C   0  0  0  0  0  0  0  0  0  0  0  0
    8.1469   -0.5882   -1.3608 C   0  0  0  0  0  0  0  0  0  0  0  0
    7.9428    2.2692   -1.2595 N   0  0  0  0  0  0  0  0  0  0  0  0
    8.2035   -1.9797   -1.2930 N   0  0  0  0  0  0  0  0  0  0  0  0
    9.2164    0.1891   -1.6277 C   0  0  0  0  0  0  0  0  0  0  0  0
    9.0701    1.6577   -1.4612 C   0  0  0  0  0  0  0  0  0  0  0  0
    9.3565   -2.7465   -1.0142 C   0  0  0  0  0  0  0  0  0  0  0  0
   10.3584    2.4564   -1.4469 C   0  0  0  0  0  0  0  0  0  0  0  0
   10.4077   -2.2359   -0.2340 C   0  0  0  0  0  0  0  0  0  0  0  0
    9.5587   -3.9728   -1.6531 C   0  0  0  0  0  0  0  0  0  0  0  0
   11.0226    2.3644   -0.0803 C   0  0  0  0  0  0  0  0  0  0  0  0
   11.6612   -2.8471   -0.1988 C   0  0  0  0  0  0  0  0  0  0  0  0
   10.8122   -4.6047   -1.6059 C   0  0  0  0  0  0  0  0  0  0  0  0
   11.8893   -4.0208   -0.9194 C   0  0  0  0  0  0  0  0  0  0  0  0
   13.2730   -4.6214   -0.9898 C   0  0  0  0  0  0  0  0  0  0  0  0
   14.2194   -3.8744   -0.3525 F   0  0  0  0  0  0  0  0  0  0  0  0
   13.3404   -5.8622   -0.4377 F   0  0  0  0  0  0  0  0  0  0  0  0
   13.7135   -4.7529   -2.2723 F   0  0  0  0  0  0  0  0  0  0  0  0
    3.0063    1.0771    0.8958 H   0  0  0  0  0  0  0  0  0  0  0  0
    3.1082    2.5322   -0.1230 H   0  0  0  0  0  0  0  0  0  0  0  0
    7.3094   -2.4690   -1.3186 H   0  0  0  0  0  0  0  0  0  0  0  0
   10.1948   -0.1970   -1.8770 H   0  0  0  0  0  0  0  0  0  0  0  0
   10.1426    3.5006   -1.6940 H   0  0  0  0  0  0  0  0  0  0  0  0
   11.0339    2.0634   -2.2144 H   0  0  0  0  0  0  0  0  0  0  0  0
   10.2727   -1.3188    0.3349 H   0  0  0  0  0  0  0  0  0  0  0  0
    8.7673   -4.4172   -2.2524 H   0  0  0  0  0  0  0  0  0  0  0  0
   10.3640    2.7497    0.7051 H   0  0  0  0  0  0  0  0  0  0  0  0
   11.9511    2.9431   -0.0670 H   0  0  0  0  0  0  0  0  0  0  0  0
   11.2680    1.3276    0.1763 H   0  0  0  0  0  0  0  0  0  0  0  0
   12.4644   -2.3749    0.3654 H   0  0  0  0  0  0  0  0  0  0  0  0
   10.9585   -5.5372   -2.1502 H   0  0  0  0  0  0  0  0  0  0  0  0
  1  2  1  0  0  0  0
  2  3  1  0  0  0  0
  2 28  1  0  0  0  0
  2 29  1  0  0  0  0
  3  4  1  0  0  0  0
  3  5  1  0  0  0  0
  3  6  1  0  0  0  0
  6  7  2  0  0  0  0
  6  8  1  0  0  0  0
  7  9  1  0  0  0  0
  8 10  2  0  0  0  0
  9 11  1  0  0  0  0
  9 10  1  0  0  0  0
 10 12  1  0  0  0  0
 11 13  1  0  0  0  0
 11 14  2  0  0  0  0
 12 15  2  0  0  0  0
 13 16  1  0  0  0  0
 13 30  1  0  0  0  0
 14 15  1  0  0  0  0
 14 31  1  0  0  0  0
 15 17  1  0  0  0  0
 16 18  2  0  0  0  0
 16 19  1  0  0  0  0
 17 20  1  0  0  0  0
 17 32  1  0  0  0  0
 17 33  1  0  0  0  0
 18 21  1  0  0  0  0
 18 34  1  0  0  0  0
 19 22  2  0  0  0  0
 19 35  1  0  0  0  0
 20 36  1  0  0  0  0
 20 37  1  0  0  0  0
 20 38  1  0  0  0  0
 21 23  2  0  0  0  0
 21 39  1  0  0  0  0
 22 23  1  0  0  0  0
 22 40  1  0  0  0  0
 23 24  1  0  0  0  0
 24 25  1  0  0  0  0
 24 26  1  0  0  0  0
 24 27  1  0  0  0  0
M  END
>  <ID>
754

>  <Parent ID>
657

>  <Generation>
5

>  <Parent Generation>
4

>  <Child No>
3

>  <Fitness>
0.94213

>  <SkelSpheres sim score>
0.92394

>  <FragFp sim score>
0.96067

$$$$
Compound 73
 OpenBabel11072204213D

 47 49  0  0  0  0  0  0  0  0999 V2000
    0.8749    0.8166   -0.5522 S   0  0  0  0  0  0  0  0  0  0  0  0
    0.4498    1.3898    1.1334 C   0  0  0  0  0  0  0  0  0  0  0  0
    0.0383    2.1043   -1.5394 C   0  0  0  0  0  0  0  0  0  0  0  0
   -1.0547    1.2952    1.3405 C   0  0  0  0  0  0  0  0  0  0  0  0
    0.2796    1.8693   -3.0210 C   0  0  0  0  0  0  0  0  0  0  0  0
   -1.7691    2.3741    1.2157 N   0  0  0  0  0  0  0  0  0  0  0  0
   -1.6063   -0.0702    1.5771 C   0  0  0  0  0  0  0  0  0  0  0  0
   -3.1201    2.2091    1.2538 C   0  0  0  0  0  0  0  0  0  0  0  0
   -2.9379   -0.2236    1.4486 C   0  0  0  0  0  0  0  0  0  0  0  0
   -4.0569    3.1267    1.1782 N   0  0  0  0  0  0  0  0  0  0  0  0
   -3.7182    0.9468    1.3315 N   0  0  0  0  0  0  0  0  0  0  0  0
   -3.5791   -1.4644    1.4504 N   0  0  0  0  0  0  0  0  0  0  0  0
   -5.2337    2.4146    1.2214 C   0  0  0  0  0  0  0  0  0  0  0  0
   -5.0732    1.0777    1.2727 N   0  0  0  0  0  0  0  0  0  0  0  0
   -3.1832   -2.5821    0.6675 C   0  0  0  0  0  0  0  0  0  0  0  0
   -6.5746    3.1172    1.2302 C   0  0  0  0  0  0  0  0  0  0  0  0
   -2.1539   -2.5274   -0.2843 C   0  0  0  0  0  0  0  0  0  0  0  0
   -3.7965   -3.8226    0.8876 C   0  0  0  0  0  0  0  0  0  0  0  0
   -7.6171    2.2325    1.2374 F   0  0  0  0  0  0  0  0  0  0  0  0
   -6.7115    3.8386    2.3867 F   0  0  0  0  0  0  0  0  0  0  0  0
   -6.7777    4.0853    0.0652 C   0  0  0  0  0  0  0  0  0  0  0  0
   -1.7455   -3.6615   -0.9913 C   0  0  0  0  0  0  0  0  0  0  0  0
   -3.3978   -4.9639    0.1732 C   0  0  0  0  0  0  0  0  0  0  0  0
   -6.8071    3.4043   -1.2951 C   0  0  0  0  0  0  0  0  0  0  0  0
   -2.3649   -4.8945   -0.7733 C   0  0  0  0  0  0  0  0  0  0  0  0
   -1.9318   -6.1194   -1.5417 C   0  0  0  0  0  0  0  0  0  0  0  0
   -0.9262   -5.8770   -2.4292 F   0  0  0  0  0  0  0  0  0  0  0  0
   -1.4769   -7.1124   -0.7289 F   0  0  0  0  0  0  0  0  0  0  0  0
   -2.9451   -6.6642   -2.2701 F   0  0  0  0  0  0  0  0  0  0  0  0
    0.8010    2.4139    1.2858 H   0  0  0  0  0  0  0  0  0  0  0  0
    0.9546    0.7415    1.8550 H   0  0  0  0  0  0  0  0  0  0  0  0
    0.4215    3.0875   -1.2510 H   0  0  0  0  0  0  0  0  0  0  0  0
   -1.0383    2.0727   -1.3533 H   0  0  0  0  0  0  0  0  0  0  0  0
    1.3417    1.9497   -3.2747 H   0  0  0  0  0  0  0  0  0  0  0  0
   -0.2590    2.6212   -3.6079 H   0  0  0  0  0  0  0  0  0  0  0  0
   -0.0829    0.8851   -3.3376 H   0  0  0  0  0  0  0  0  0  0  0  0
   -0.9241   -0.8962    1.7315 H   0  0  0  0  0  0  0  0  0  0  0  0
   -4.5993   -1.3810    1.5006 H   0  0  0  0  0  0  0  0  0  0  0  0
   -1.6514   -1.5953   -0.5234 H   0  0  0  0  0  0  0  0  0  0  0  0
   -4.5860   -3.9175    1.6303 H   0  0  0  0  0  0  0  0  0  0  0  0
   -6.0022    4.8610    0.0729 H   0  0  0  0  0  0  0  0  0  0  0  0
   -7.7326    4.6061    0.2109 H   0  0  0  0  0  0  0  0  0  0  0  0
   -0.9381   -3.5669   -1.7165 H   0  0  0  0  0  0  0  0  0  0  0  0
   -3.8954   -5.9137    0.3653 H   0  0  0  0  0  0  0  0  0  0  0  0
   -5.8506    2.9265   -1.5245 H   0  0  0  0  0  0  0  0  0  0  0  0
   -7.0102    4.1410   -2.0793 H   0  0  0  0  0  0  0  0  0  0  0  0
   -7.5931    2.6436   -1.3357 H   0  0  0  0  0  0  0  0  0  0  0  0
  1  2  1  0  0  0  0
  1  3  1  0  0  0  0
  2  4  1  0  0  0  0
  2 30  1  0  0  0  0
  2 31  1  0  0  0  0
  3  5  1  0  0  0  0
  3 32  1  0  0  0  0
  3 33  1  0  0  0  0
  4  6  2  0  0  0  0
  4  7  1  0  0  0  0
  5 34  1  0  0  0  0
  5 35  1  0  0  0  0
  5 36  1  0  0  0  0
  6  8  1  0  0  0  0
  7  9  2  0  0  0  0
  7 37  1  0  0  0  0
  8 10  2  0  0  0  0
  8 11  1  0  0  0  0
  9 12  1  0  0  0  0
  9 11  1  0  0  0  0
 10 13  1  0  0  0  0
 11 14  1  0  0  0  0
 12 15  1  0  0  0  0
 12 38  1  0  0  0  0
 13 16  1  0  0  0  0
 13 14  2  0  0  0  0
 15 17  2  0  0  0  0
 15 18  1  0  0  0  0
 16 19  1  0  0  0  0
 16 20  1  0  0  0  0
 16 21  1  0  0  0  0
 17 22  1  0  0  0  0
 17 39  1  0  0  0  0
 18 23  2  0  0  0  0
 18 40  1  0  0  0  0
 21 24  1  0  0  0  0
 21 41  1  0  0  0  0
 21 42  1  0  0  0  0
 22 25  2  0  0  0  0
 22 43  1  0  0  0  0
 23 25  1  0  0  0  0
 23 44  1  0  0  0  0
 24 45  1  0  0  0  0
 24 46  1  0  0  0  0
 24 47  1  0  0  0  0
 25 26  1  0  0  0  0
 26 27  1  0  0  0  0
 26 28  1  0  0  0  0
 26 29  1  0  0  0  0
M  END
>  <ID>
760

>  <Parent ID>
740

>  <Generation>
3

>  <Parent Generation>
2

>  <Child No>
1

>  <Fitness>
0.95762

>  <SkelSpheres sim score>
0.92757

>  <FragFp sim score>
0.98864

$$$$
Compound 74
 OpenBabel11072204213D

 39 41  0  0  0  0  0  0  0  0999 V2000
    6.6079   -0.9071    0.2155 F   0  0  0  0  0  0  0  0  0  0  0  0
    5.8266   -0.2146   -0.6597 C   0  0  0  0  0  0  0  0  0  0  0  0
    5.0548    0.6106    0.0992 F   0  0  0  0  0  0  0  0  0  0  0  0
    6.6728    0.5950   -1.3534 F   0  0  0  0  0  0  0  0  0  0  0  0
    5.0108   -1.1008   -1.5712 C   0  0  0  0  0  0  0  0  0  0  0  0
    5.0906   -2.4954   -1.4809 C   0  0  0  0  0  0  0  0  0  0  0  0
    4.1964   -0.5361   -2.5643 C   0  0  0  0  0  0  0  0  0  0  0  0
    4.4212   -3.3053   -2.4024 C   0  0  0  0  0  0  0  0  0  0  0  0
    3.5292   -1.3503   -3.4867 C   0  0  0  0  0  0  0  0  0  0  0  0
    3.6440   -2.7434   -3.4253 C   0  0  0  0  0  0  0  0  0  0  0  0
    3.0929   -3.5214   -4.4855 N   0  0  0  0  0  0  0  0  0  0  0  0
    2.8667   -4.8942   -4.3439 C   0  0  0  0  0  0  0  0  0  0  0  0
    3.5715   -5.7828   -5.1839 N   0  0  0  0  0  0  0  0  0  0  0  0
    2.0167   -5.4158   -3.4412 C   0  0  0  0  0  0  0  0  0  0  0  0
    4.4571   -5.4978   -6.1755 N   0  0  0  0  0  0  0  0  0  0  0  0
    3.4339   -7.1695   -5.0564 C   0  0  0  0  0  0  0  0  0  0  0  0
    1.9615   -6.9008   -3.3654 C   0  0  0  0  0  0  0  0  0  0  0  0
    4.8319   -6.7225   -6.5926 C   0  0  0  0  0  0  0  0  0  0  0  0
    2.6177   -7.7321   -4.1191 N   0  0  0  0  0  0  0  0  0  0  0  0
    4.2118   -7.7630   -5.9300 N   0  0  0  0  0  0  0  0  0  0  0  0
    1.0821   -7.4922   -2.2876 C   0  0  0  0  0  0  0  0  0  0  0  0
    5.8156   -6.9752   -7.7161 C   0  0  0  0  0  0  0  0  0  0  0  0
    0.3915   -6.7812   -1.5758 O   0  0  0  0  0  0  0  0  0  0  0  0
    6.3042   -5.8116   -8.2412 F   0  0  0  0  0  0  0  0  0  0  0  0
    6.9136   -7.6425   -7.2445 F   0  0  0  0  0  0  0  0  0  0  0  0
    5.2270   -7.8032   -8.8580 C   0  0  0  0  0  0  0  0  0  0  0  0
    4.0470   -7.1292   -9.5437 C   0  0  0  0  0  0  0  0  0  0  0  0
    5.7063   -2.9644   -0.7143 H   0  0  0  0  0  0  0  0  0  0  0  0
    4.1041    0.5463   -2.6438 H   0  0  0  0  0  0  0  0  0  0  0  0
    4.5565   -4.3805   -2.3249 H   0  0  0  0  0  0  0  0  0  0  0  0
    2.9257   -0.8882   -4.2652 H   0  0  0  0  0  0  0  0  0  0  0  0
    3.6796   -3.3527   -5.3148 H   0  0  0  0  0  0  0  0  0  0  0  0
    1.4166   -4.8132   -2.7713 H   0  0  0  0  0  0  0  0  0  0  0  0
    1.1394   -8.5880   -2.1969 H   0  0  0  0  0  0  0  0  0  0  0  0
    4.9255   -8.7922   -8.4928 H   0  0  0  0  0  0  0  0  0  0  0  0
    6.0110   -7.9761   -9.6053 H   0  0  0  0  0  0  0  0  0  0  0  0
    3.2097   -6.9875   -8.8534 H   0  0  0  0  0  0  0  0  0  0  0  0
    3.6910   -7.7466  -10.3744 H   0  0  0  0  0  0  0  0  0  0  0  0
    4.3323   -6.1518   -9.9450 H   0  0  0  0  0  0  0  0  0  0  0  0
  1  2  1  0  0  0  0
  2  3  1  0  0  0  0
  2  4  1  0  0  0  0
  2  5  1  0  0  0  0
  5  6  2  0  0  0  0
  5  7  1  0  0  0  0
  6  8  1  0  0  0  0
  6 28  1  0  0  0  0
  7  9  2  0  0  0  0
  7 29  1  0  0  0  0
  8 10  2  0  0  0  0
  8 30  1  0  0  0  0
  9 10  1  0  0  0  0
  9 31  1  0  0  0  0
 10 11  1  0  0  0  0
 11 12  1  0  0  0  0
 11 32  1  0  0  0  0
 12 13  1  0  0  0  0
 12 14  2  0  0  0  0
 13 15  1  0  0  0  0
 13 16  1  0  0  0  0
 14 17  1  0  0  0  0
 14 33  1  0  0  0  0
 15 18  2  0  0  0  0
 16 19  1  0  0  0  0
 16 20  2  0  0  0  0
 17 21  1  0  0  0  0
 17 19  2  0  0  0  0
 18 22  1  0  0  0  0
 18 20  1  0  0  0  0
 21 23  2  0  0  0  0
 21 34  1  0  0  0  0
 22 24  1  0  0  0  0
 22 25  1  0  0  0  0
 22 26  1  0  0  0  0
 26 27  1  0  0  0  0
 26 35  1  0  0  0  0
 26 36  1  0  0  0  0
 27 37  1  0  0  0  0
 27 38  1  0  0  0  0
 27 39  1  0  0  0  0
M  END
>  <ID>
789

>  <Parent ID>
1

>  <Generation>
1

>  <Parent Generation>
0

>  <Child No>
2

>  <Fitness>
0.95483

>  <SkelSpheres sim score>
0.94314

>  <FragFp sim score>
0.96667

$$$$
Compound 75
 OpenBabel11072204213D

 46 48  0  0  0  0  0  0  0  0999 V2000
    3.1686   -0.7101   -0.9668 F   0  0  0  0  0  0  0  0  0  0  0  0
    2.4073   -0.1412    0.0154 C   0  0  0  0  0  0  0  0  0  0  0  0
    1.1177   -0.5102   -0.2535 F   0  0  0  0  0  0  0  0  0  0  0  0
    2.8264   -0.6485    1.3835 C   0  0  0  0  0  0  0  0  0  0  0  0
    2.5046    1.3803   -0.1225 C   0  0  0  0  0  0  0  0  0  0  0  0
    2.7293   -1.9376    1.7620 N   0  0  0  0  0  0  0  0  0  0  0  0
    3.3172    0.1921    2.3571 N   0  0  0  0  0  0  0  0  0  0  0  0
    2.0150    1.8725   -1.4784 C   0  0  0  0  0  0  0  0  0  0  0  0
    3.1479   -1.8971    3.0572 N   0  0  0  0  0  0  0  0  0  0  0  0
    3.5071   -0.5878    3.3966 C   0  0  0  0  0  0  0  0  0  0  0  0
    3.2386   -2.9483    3.9966 C   0  0  0  0  0  0  0  0  0  0  0  0
    3.9807   -0.2614    4.6338 N   0  0  0  0  0  0  0  0  0  0  0  0
    2.9341   -4.2447    3.5802 N   0  0  0  0  0  0  0  0  0  0  0  0
    3.5920   -2.6270    5.2543 C   0  0  0  0  0  0  0  0  0  0  0  0
    4.0144   -1.2192    5.5130 C   0  0  0  0  0  0  0  0  0  0  0  0
    3.7536   -5.3806    3.8035 C   0  0  0  0  0  0  0  0  0  0  0  0
    4.5673   -0.9262    6.8933 C   0  0  0  0  0  0  0  0  0  0  0  0
    5.0259   -5.3035    4.3896 C   0  0  0  0  0  0  0  0  0  0  0  0
    3.2518   -6.6547    3.5051 C   0  0  0  0  0  0  0  0  0  0  0  0
    6.0370   -1.3001    6.9789 C   0  0  0  0  0  0  0  0  0  0  0  0
    5.7644   -6.4507    4.6891 C   0  0  0  0  0  0  0  0  0  0  0  0
    3.9917   -7.8103    3.7966 C   0  0  0  0  0  0  0  0  0  0  0  0
    5.2517   -7.7196    4.4049 C   0  0  0  0  0  0  0  0  0  0  0  0
    6.0493   -8.9531    4.7718 C   0  0  0  0  0  0  0  0  0  0  0  0
    6.8234   -8.7499    5.8808 F   0  0  0  0  0  0  0  0  0  0  0  0
    5.2495  -10.0144    5.0864 F   0  0  0  0  0  0  0  0  0  0  0  0
    6.9743   -9.3853    3.6460 C   0  0  0  0  0  0  0  0  0  0  0  0
    3.5450    1.7019    0.0083 H   0  0  0  0  0  0  0  0  0  0  0  0
    1.9057    1.8670    0.6563 H   0  0  0  0  0  0  0  0  0  0  0  0
    2.6081    1.4454   -2.2929 H   0  0  0  0  0  0  0  0  0  0  0  0
    2.0971    2.9627   -1.5357 H   0  0  0  0  0  0  0  0  0  0  0  0
    0.9654    1.6064   -1.6387 H   0  0  0  0  0  0  0  0  0  0  0  0
    2.4871   -4.2710    2.6595 H   0  0  0  0  0  0  0  0  0  0  0  0
    3.6386   -3.3492    6.0592 H   0  0  0  0  0  0  0  0  0  0  0  0
    3.9951   -1.4905    7.6379 H   0  0  0  0  0  0  0  0  0  0  0  0
    4.4367    0.1398    7.1152 H   0  0  0  0  0  0  0  0  0  0  0  0
    5.4838   -4.3462    4.6201 H   0  0  0  0  0  0  0  0  0  0  0  0
    2.2633   -6.7602    3.0635 H   0  0  0  0  0  0  0  0  0  0  0  0
    6.1877   -2.3677    6.7740 H   0  0  0  0  0  0  0  0  0  0  0  0
    6.4273   -1.0894    7.9791 H   0  0  0  0  0  0  0  0  0  0  0  0
    6.6310   -0.7367    6.2518 H   0  0  0  0  0  0  0  0  0  0  0  0
    6.7399   -6.3449    5.1611 H   0  0  0  0  0  0  0  0  0  0  0  0
    3.5654   -8.7878    3.5678 H   0  0  0  0  0  0  0  0  0  0  0  0
    7.6565   -8.5801    3.3534 H   0  0  0  0  0  0  0  0  0  0  0  0
    6.4082   -9.7073    2.7665 H   0  0  0  0  0  0  0  0  0  0  0  0
    7.5879  -10.2313    3.9745 H   0  0  0  0  0  0  0  0  0  0  0  0
  1  2  1  0  0  0  0
  2  3  1  0  0  0  0
  2  4  1  0  0  0  0
  2  5  1  0  0  0  0
  4  6  2  0  0  0  0
  4  7  1  0  0  0  0
  5  8  1  0  0  0  0
  5 28  1  0  0  0  0
  5 29  1  0  0  0  0
  6  9  1  0  0  0  0
  7 10  2  0  0  0  0
  8 30  1  0  0  0  0
  8 31  1  0  0  0  0
  8 32  1  0  0  0  0
  9 11  1  0  0  0  0
  9 10  1  0  0  0  0
 10 12  1  0  0  0  0
 11 13  1  0  0  0  0
 11 14  2  0  0  0  0
 12 15  2  0  0  0  0
 13 16  1  0  0  0  0
 13 33  1  0  0  0  0
 14 15  1  0  0  0  0
 14 34  1  0  0  0  0
 15 17  1  0  0  0  0
 16 18  2  0  0  0  0
 16 19  1  0  0  0  0
 17 20  1  0  0  0  0
 17 35  1  0  0  0  0
 17 36  1  0  0  0  0
 18 21  1  0  0  0  0
 18 37  1  0  0  0  0
 19 22  2  0  0  0  0
 19 38  1  0  0  0  0
 20 39  1  0  0  0  0
 20 40  1  0  0  0  0
 20 41  1  0  0  0  0
 21 23  2  0  0  0  0
 21 42  1  0  0  0  0
 22 23  1  0  0  0  0
 22 43  1  0  0  0  0
 23 24  1  0  0  0  0
 24 25  1  0  0  0  0
 24 26  1  0  0  0  0
 24 27  1  0  0  0  0
 27 44  1  0  0  0  0
 27 45  1  0  0  0  0
 27 46  1  0  0  0  0
M  END
>  <ID>
797

>  <Parent ID>
498

>  <Generation>
3

>  <Parent Generation>
2

>  <Child No>
4

>  <Fitness>
0.93993

>  <SkelSpheres sim score>
0.90377

>  <FragFp sim score>
0.97753

$$$$
Compound 76
 OpenBabel11072204213D

 40 42  0  0  0  0  0  0  0  0999 V2000
    0.6513   -0.1163   -9.2319 F   0  0  0  0  0  0  0  0  0  0  0  0
    1.6431    0.3098   -8.4013 C   0  0  0  0  0  0  0  0  0  0  0  0
    2.6141    0.8221   -9.2049 F   0  0  0  0  0  0  0  0  0  0  0  0
    1.1237    1.3698   -7.7195 F   0  0  0  0  0  0  0  0  0  0  0  0
    2.1561   -0.7637   -7.4724 C   0  0  0  0  0  0  0  0  0  0  0  0
    1.6494   -2.0702   -7.5207 C   0  0  0  0  0  0  0  0  0  0  0  0
    3.1178   -0.4498   -6.5026 C   0  0  0  0  0  0  0  0  0  0  0  0
    2.0380   -3.0220   -6.5719 C   0  0  0  0  0  0  0  0  0  0  0  0
    3.4962   -1.3998   -5.5509 C   0  0  0  0  0  0  0  0  0  0  0  0
    2.9359   -2.6842   -5.5547 C   0  0  0  0  0  0  0  0  0  0  0  0
    3.2208   -3.5358   -4.4581 N   0  0  0  0  0  0  0  0  0  0  0  0
    3.0126   -4.9125   -4.4573 C   0  0  0  0  0  0  0  0  0  0  0  0
    2.0807   -5.4879   -3.5762 N   0  0  0  0  0  0  0  0  0  0  0  0
    3.7378   -5.7510   -5.2172 C   0  0  0  0  0  0  0  0  0  0  0  0
    1.9448   -6.8632   -3.4244 C   0  0  0  0  0  0  0  0  0  0  0  0
    1.1507   -4.8999   -2.7536 C   0  0  0  0  0  0  0  0  0  0  0  0
    3.5059   -7.2187   -5.0472 C   0  0  0  0  0  0  0  0  0  0  0  0
    2.6683   -7.7304   -4.1838 N   0  0  0  0  0  0  0  0  0  0  0  0
    1.0745   -7.1381   -2.4683 N   0  0  0  0  0  0  0  0  0  0  0  0
    0.5680   -5.9262   -2.0352 C   0  0  0  0  0  0  0  0  0  0  0  0
    4.2192   -8.0941   -5.8203 N   0  0  0  0  0  0  0  0  0  0  0  0
   -0.4768   -5.8137   -0.9561 C   0  0  0  0  0  0  0  0  0  0  0  0
   -0.3975   -4.5756   -0.3771 F   0  0  0  0  0  0  0  0  0  0  0  0
   -1.7268   -5.8820   -1.4966 F   0  0  0  0  0  0  0  0  0  0  0  0
   -0.3487   -6.8616    0.1458 C   0  0  0  0  0  0  0  0  0  0  0  0
   -1.3719   -6.6456    1.2544 C   0  0  0  0  0  0  0  0  0  0  0  0
    0.9141   -2.3467   -8.2755 H   0  0  0  0  0  0  0  0  0  0  0  0
    3.5494    0.5495   -6.4608 H   0  0  0  0  0  0  0  0  0  0  0  0
    1.5841   -4.0089   -6.6120 H   0  0  0  0  0  0  0  0  0  0  0  0
    4.2219   -1.1260   -4.7876 H   0  0  0  0  0  0  0  0  0  0  0  0
    2.8564   -3.0891   -3.6157 H   0  0  0  0  0  0  0  0  0  0  0  0
    4.4966   -5.4132   -5.9073 H   0  0  0  0  0  0  0  0  0  0  0  0
    0.9691   -3.8349   -2.7392 H   0  0  0  0  0  0  0  0  0  0  0  0
    5.1395   -7.8063   -6.1289 H   0  0  0  0  0  0  0  0  0  0  0  0
    4.1889   -9.0441   -5.4618 H   0  0  0  0  0  0  0  0  0  0  0  0
    0.6548   -6.8218    0.5859 H   0  0  0  0  0  0  0  0  0  0  0  0
   -0.4902   -7.8662   -0.2693 H   0  0  0  0  0  0  0  0  0  0  0  0
   -1.2421   -5.6658    1.7255 H   0  0  0  0  0  0  0  0  0  0  0  0
   -1.2575   -7.4088    2.0308 H   0  0  0  0  0  0  0  0  0  0  0  0
   -2.3935   -6.7068    0.8664 H   0  0  0  0  0  0  0  0  0  0  0  0
  1  2  1  0  0  0  0
  2  3  1  0  0  0  0
  2  4  1  0  0  0  0
  2  5  1  0  0  0  0
  5  6  2  0  0  0  0
  5  7  1  0  0  0  0
  6  8  1  0  0  0  0
  6 27  1  0  0  0  0
  7  9  2  0  0  0  0
  7 28  1  0  0  0  0
  8 10  2  0  0  0  0
  8 29  1  0  0  0  0
  9 10  1  0  0  0  0
  9 30  1  0  0  0  0
 10 11  1  0  0  0  0
 11 12  1  0  0  0  0
 11 31  1  0  0  0  0
 12 13  1  0  0  0  0
 12 14  2  0  0  0  0
 13 15  1  0  0  0  0
 13 16  1  0  0  0  0
 14 17  1  0  0  0  0
 14 32  1  0  0  0  0
 15 18  1  0  0  0  0
 15 19  2  0  0  0  0
 16 20  2  0  0  0  0
 16 33  1  0  0  0  0
 17 21  1  0  0  0  0
 17 18  2  0  0  0  0
 19 20  1  0  0  0  0
 20 22  1  0  0  0  0
 21 34  1  0  0  0  0
 21 35  1  0  0  0  0
 22 23  1  0  0  0  0
 22 24  1  0  0  0  0
 22 25  1  0  0  0  0
 25 26  1  0  0  0  0
 25 36  1  0  0  0  0
 25 37  1  0  0  0  0
 26 38  1  0  0  0  0
 26 39  1  0  0  0  0
 26 40  1  0  0  0  0
M  END
>  <ID>
799

>  <Parent ID>
110

>  <Generation>
4

>  <Parent Generation>
3

>  <Child No>
6

>  <Fitness>
0.9337

>  <SkelSpheres sim score>
0.92368

>  <FragFp sim score>
0.94382

$$$$
Compound 77
 OpenBabel11072204213D

 38 40  0  0  0  0  0  0  0  0999 V2000
    2.9041   -0.3700    0.7032 F   0  0  0  0  0  0  0  0  0  0  0  0
    2.8739    0.7099   -0.1264 C   0  0  0  0  0  0  0  0  0  0  0  0
    1.7289    1.3802    0.1767 F   0  0  0  0  0  0  0  0  0  0  0  0
    3.8955    1.5153    0.2755 F   0  0  0  0  0  0  0  0  0  0  0  0
    2.9695    0.3553   -1.5778 C   0  0  0  0  0  0  0  0  0  0  0  0
    3.1328   -0.9559   -1.9827 C   0  0  0  0  0  0  0  0  0  0  0  0
    2.9172    1.3213   -2.5828 C   0  0  0  0  0  0  0  0  0  0  0  0
    3.2701   -1.3412   -3.2756 N   0  0  0  0  0  0  0  0  0  0  0  0
    3.0475    0.9378   -3.9220 C   0  0  0  0  0  0  0  0  0  0  0  0
    3.2427   -0.4029   -4.2481 C   0  0  0  0  0  0  0  0  0  0  0  0
    3.3218   -0.7585   -5.6155 N   0  0  0  0  0  0  0  0  0  0  0  0
    3.3568   -2.0518   -6.1442 C   0  0  0  0  0  0  0  0  0  0  0  0
    3.7934   -2.2094   -7.4818 N   0  0  0  0  0  0  0  0  0  0  0  0
    2.9533   -3.1694   -5.5121 C   0  0  0  0  0  0  0  0  0  0  0  0
    4.1552   -1.2509   -8.3890 N   0  0  0  0  0  0  0  0  0  0  0  0
    3.8375   -3.4685   -8.0941 C   0  0  0  0  0  0  0  0  0  0  0  0
    3.1089   -4.4815   -6.1997 C   0  0  0  0  0  0  0  0  0  0  0  0
    4.3297   -1.9704   -9.5154 C   0  0  0  0  0  0  0  0  0  0  0  0
    3.5352   -4.6143   -7.4244 N   0  0  0  0  0  0  0  0  0  0  0  0
    4.1766   -3.3259   -9.3522 N   0  0  0  0  0  0  0  0  0  0  0  0
    2.8129   -5.6215   -5.5081 N   0  0  0  0  0  0  0  0  0  0  0  0
    4.5874   -1.3820  -10.8881 C   0  0  0  0  0  0  0  0  0  0  0  0
    4.7263   -0.0227  -10.8491 F   0  0  0  0  0  0  0  0  0  0  0  0
    5.7709   -1.8479  -11.3949 F   0  0  0  0  0  0  0  0  0  0  0  0
    3.4903   -1.7219  -11.9020 C   0  0  0  0  0  0  0  0  0  0  0  0
    2.1240   -1.1642  -11.5272 C   0  0  0  0  0  0  0  0  0  0  0  0
    3.1589   -1.7741   -1.2650 H   0  0  0  0  0  0  0  0  0  0  0  0
    2.7696    2.3707   -2.3323 H   0  0  0  0  0  0  0  0  0  0  0  0
    2.9864    1.6907   -4.7018 H   0  0  0  0  0  0  0  0  0  0  0  0
    3.8604   -0.0957   -6.1735 H   0  0  0  0  0  0  0  0  0  0  0  0
    2.5292   -3.1797   -4.5202 H   0  0  0  0  0  0  0  0  0  0  0  0
    2.9436   -5.5888   -4.5036 H   0  0  0  0  0  0  0  0  0  0  0  0
    3.2096   -6.4529   -5.9360 H   0  0  0  0  0  0  0  0  0  0  0  0
    3.4179   -2.8086  -12.0341 H   0  0  0  0  0  0  0  0  0  0  0  0
    3.7751   -1.3126  -12.8792 H   0  0  0  0  0  0  0  0  0  0  0  0
    1.7635   -1.5830  -10.5825 H   0  0  0  0  0  0  0  0  0  0  0  0
    1.3896   -1.4124  -12.3005 H   0  0  0  0  0  0  0  0  0  0  0  0
    2.1582   -0.0744  -11.4310 H   0  0  0  0  0  0  0  0  0  0  0  0
  1  2  1  0  0  0  0
  2  3  1  0  0  0  0
  2  4  1  0  0  0  0
  2  5  1  0  0  0  0
  5  6  2  0  0  0  0
  5  7  1  0  0  0  0
  6  8  1  0  0  0  0
  6 27  1  0  0  0  0
  7  9  2  0  0  0  0
  7 28  1  0  0  0  0
  8 10  2  0  0  0  0
  9 10  1  0  0  0  0
  9 29  1  0  0  0  0
 10 11  1  0  0  0  0
 11 12  1  0  0  0  0
 11 30  1  0  0  0  0
 12 13  1  0  0  0  0
 12 14  2  0  0  0  0
 13 15  1  0  0  0  0
 13 16  1  0  0  0  0
 14 17  1  0  0  0  0
 14 31  1  0  0  0  0
 15 18  2  0  0  0  0
 16 19  1  0  0  0  0
 16 20  2  0  0  0  0
 17 21  1  0  0  0  0
 17 19  2  0  0  0  0
 18 22  1  0  0  0  0
 18 20  1  0  0  0  0
 21 32  1  0  0  0  0
 21 33  1  0  0  0  0
 22 23  1  0  0  0  0
 22 24  1  0  0  0  0
 22 25  1  0  0  0  0
 25 26  1  0  0  0  0
 25 34  1  0  0  0  0
 25 35  1  0  0  0  0
 26 36  1  0  0  0  0
 26 37  1  0  0  0  0
 26 38  1  0  0  0  0
M  END
>  <ID>
804

>  <Parent ID>
110

>  <Generation>
4

>  <Parent Generation>
3

>  <Child No>
8

>  <Fitness>
0.93184

>  <SkelSpheres sim score>
0.92032

>  <FragFp sim score>
0.9435

$$$$
Compound 78
 OpenBabel11072204213D

 39 41  0  0  0  0  0  0  0  0999 V2000
    1.0132   -0.7382   -0.1972 Cl  0  0  0  0  0  0  0  0  0  0  0  0
    2.7123   -0.4430   -0.1457 C   0  0  0  0  0  0  0  0  0  0  0  0
    3.4633   -1.4974   -0.1032 N   0  0  0  0  0  0  0  0  0  0  0  0
    3.1988    0.9655   -0.1496 C   0  0  0  0  0  0  0  0  0  0  0  0
    4.8054   -1.2741   -0.0545 C   0  0  0  0  0  0  0  0  0  0  0  0
    4.5303    1.1671   -0.1015 C   0  0  0  0  0  0  0  0  0  0  0  0
    5.7726   -2.1594   -0.0259 N   0  0  0  0  0  0  0  0  0  0  0  0
    5.3567    0.0130   -0.0462 N   0  0  0  0  0  0  0  0  0  0  0  0
    5.1425    2.4175   -0.0381 N   0  0  0  0  0  0  0  0  0  0  0  0
    6.9222   -1.4105    0.0039 C   0  0  0  0  0  0  0  0  0  0  0  0
    6.7169   -0.0781    0.0012 N   0  0  0  0  0  0  0  0  0  0  0  0
    4.6803    3.6597   -0.5130 C   0  0  0  0  0  0  0  0  0  0  0  0
    8.2792   -2.0821   -0.0306 C   0  0  0  0  0  0  0  0  0  0  0  0
    4.9749    4.8216    0.2127 C   0  0  0  0  0  0  0  0  0  0  0  0
    3.8902    3.7901   -1.6618 C   0  0  0  0  0  0  0  0  0  0  0  0
    9.3028   -1.1757   -0.0262 F   0  0  0  0  0  0  0  0  0  0  0  0
    8.4643   -2.8333    1.0986 F   0  0  0  0  0  0  0  0  0  0  0  0
    8.4614   -3.0049   -1.2358 C   0  0  0  0  0  0  0  0  0  0  0  0
    4.4859    6.0746   -0.1890 C   0  0  0  0  0  0  0  0  0  0  0  0
    3.4168    5.0428   -2.0808 C   0  0  0  0  0  0  0  0  0  0  0  0
    8.4161   -2.2381   -2.5526 C   0  0  0  0  0  0  0  0  0  0  0  0
    3.6975    6.1991   -1.3395 C   0  0  0  0  0  0  0  0  0  0  0  0
    8.6046   -3.1445   -3.6830 N   0  0  0  0  0  0  0  0  0  0  0  0
    3.1536    7.5403   -1.7778 C   0  0  0  0  0  0  0  0  0  0  0  0
    3.4487    8.5554   -0.9179 F   0  0  0  0  0  0  0  0  0  0  0  0
    3.6324    7.9293   -2.9917 F   0  0  0  0  0  0  0  0  0  0  0  0
    1.7962    7.5378   -1.8955 F   0  0  0  0  0  0  0  0  0  0  0  0
    2.4668    1.7616   -0.1518 H   0  0  0  0  0  0  0  0  0  0  0  0
    6.1177    2.4026    0.2636 H   0  0  0  0  0  0  0  0  0  0  0  0
    5.5685    4.7622    1.1220 H   0  0  0  0  0  0  0  0  0  0  0  0
    3.6613    2.9209   -2.2738 H   0  0  0  0  0  0  0  0  0  0  0  0
    7.6971   -3.7934   -1.2245 H   0  0  0  0  0  0  0  0  0  0  0  0
    9.4291   -3.5145   -1.1420 H   0  0  0  0  0  0  0  0  0  0  0  0
    4.7201    6.9531    0.4119 H   0  0  0  0  0  0  0  0  0  0  0  0
    2.8250    5.1114   -2.9933 H   0  0  0  0  0  0  0  0  0  0  0  0
    9.1940   -1.4695   -2.5748 H   0  0  0  0  0  0  0  0  0  0  0  0
    7.4498   -1.7379   -2.6770 H   0  0  0  0  0  0  0  0  0  0  0  0
    9.5249   -3.5815   -3.6349 H   0  0  0  0  0  0  0  0  0  0  0  0
    8.5899   -2.6123   -4.5536 H   0  0  0  0  0  0  0  0  0  0  0  0
  1  2  1  0  0  0  0
  2  3  2  0  0  0  0
  2  4  1  0  0  0  0
  3  5  1  0  0  0  0
  4  6  2  0  0  0  0
  4 28  1  0  0  0  0
  5  7  2  0  0  0  0
  5  8  1  0  0  0  0
  6  9  1  0  0  0  0
  6  8  1  0  0  0  0
  7 10  1  0  0  0  0
  8 11  1  0  0  0  0
  9 12  1  0  0  0  0
  9 29  1  0  0  0  0
 10 13  1  0  0  0  0
 10 11  2  0  0  0  0
 12 14  2  0  0  0  0
 12 15  1  0  0  0  0
 13 16  1  0  0  0  0
 13 17  1  0  0  0  0
 13 18  1  0  0  0  0
 14 19  1  0  0  0  0
 14 30  1  0  0  0  0
 15 20  2  0  0  0  0
 15 31  1  0  0  0  0
 18 21  1  0  0  0  0
 18 32  1  0  0  0  0
 18 33  1  0  0  0  0
 19 22  2  0  0  0  0
 19 34  1  0  0  0  0
 20 22  1  0  0  0  0
 20 35  1  0  0  0  0
 21 23  1  0  0  0  0
 21 36  1  0  0  0  0
 21 37  1  0  0  0  0
 22 24  1  0  0  0  0
 23 38  1  0  0  0  0
 23 39  1  0  0  0  0
 24 25  1  0  0  0  0
 24 26  1  0  0  0  0
 24 27  1  0  0  0  0
M  END
>  <ID>
809

>  <Parent ID>
242

>  <Generation>
2

>  <Parent Generation>
1

>  <Child No>
7

>  <Fitness>
0.93291

>  <SkelSpheres sim score>
0.92064

>  <FragFp sim score>
0.94536

$$$$
Compound 79
 OpenBabel11072204213D

 40 42  0  0  0  0  0  0  0  0999 V2000
    7.7816   -0.3989   -0.7979 F   0  0  0  0  0  0  0  0  0  0  0  0
    7.1361    0.6612   -1.3620 C   0  0  0  0  0  0  0  0  0  0  0  0
    6.6234    1.3799   -0.3240 F   0  0  0  0  0  0  0  0  0  0  0  0
    8.1105    1.4372   -1.9113 F   0  0  0  0  0  0  0  0  0  0  0  0
    6.0886    0.2620   -2.3710 C   0  0  0  0  0  0  0  0  0  0  0  0
    5.8829   -1.0805   -2.6963 C   0  0  0  0  0  0  0  0  0  0  0  0
    5.3270    1.2332   -3.0360 C   0  0  0  0  0  0  0  0  0  0  0  0
    5.0038   -1.4338   -3.7242 C   0  0  0  0  0  0  0  0  0  0  0  0
    4.4402    0.8715   -4.0600 C   0  0  0  0  0  0  0  0  0  0  0  0
    4.3163   -0.4631   -4.4687 C   0  0  0  0  0  0  0  0  0  0  0  0
    3.4723   -0.7682   -5.5776 N   0  0  0  0  0  0  0  0  0  0  0  0
    3.4173   -2.0336   -6.1694 C   0  0  0  0  0  0  0  0  0  0  0  0
    3.7658   -2.1720   -7.5349 N   0  0  0  0  0  0  0  0  0  0  0  0
    3.0179   -3.1391   -5.5154 C   0  0  0  0  0  0  0  0  0  0  0  0
    4.0879   -1.2131   -8.4541 N   0  0  0  0  0  0  0  0  0  0  0  0
    3.7956   -3.4308   -8.1469 C   0  0  0  0  0  0  0  0  0  0  0  0
    3.2064   -4.4415   -6.2102 C   0  0  0  0  0  0  0  0  0  0  0  0
    4.2477   -1.9322   -9.5830 C   0  0  0  0  0  0  0  0  0  0  0  0
    3.5566   -4.5794   -7.4540 N   0  0  0  0  0  0  0  0  0  0  0  0
    4.0950   -3.2885   -9.4166 N   0  0  0  0  0  0  0  0  0  0  0  0
    3.0257   -5.6830   -5.3761 C   0  0  0  0  0  0  0  0  0  0  0  0
    4.5399   -1.3465  -10.9502 C   0  0  0  0  0  0  0  0  0  0  0  0
    4.0447   -0.0793  -11.0683 F   0  0  0  0  0  0  0  0  0  0  0  0
    5.8883   -1.2409  -11.1626 F   0  0  0  0  0  0  0  0  0  0  0  0
    3.9439   -2.2205  -12.0808 C   0  0  0  0  0  0  0  0  0  0  0  0
    4.1850   -1.6740  -13.4708 N   0  0  0  0  0  0  0  0  0  0  0  0
    3.3968   -0.7520  -14.0318 C   0  0  0  0  0  0  0  0  0  0  0  0
    2.7122    0.0427  -14.5169 N   0  0  0  0  0  0  0  0  0  0  0  0
    6.4291   -1.8656   -2.1750 H   0  0  0  0  0  0  0  0  0  0  0  0
    5.4414    2.2851   -2.7765 H   0  0  0  0  0  0  0  0  0  0  0  0
    4.9233   -2.4911   -3.9485 H   0  0  0  0  0  0  0  0  0  0  0  0
    3.8716    1.6528   -4.5597 H   0  0  0  0  0  0  0  0  0  0  0  0
    3.5655   -0.0318   -6.2867 H   0  0  0  0  0  0  0  0  0  0  0  0
    2.6585   -3.1221   -4.4953 H   0  0  0  0  0  0  0  0  0  0  0  0
    2.8819   -5.4347   -4.3206 H   0  0  0  0  0  0  0  0  0  0  0  0
    3.9226   -6.3043   -5.4633 H   0  0  0  0  0  0  0  0  0  0  0  0
    2.1604   -6.2436   -5.7372 H   0  0  0  0  0  0  0  0  0  0  0  0
    2.8625   -2.3406  -11.9411 H   0  0  0  0  0  0  0  0  0  0  0  0
    4.3992   -3.2195  -12.0605 H   0  0  0  0  0  0  0  0  0  0  0  0
    5.1787   -1.7022  -13.7322 H   0  0  0  0  0  0  0  0  0  0  0  0
  1  2  1  0  0  0  0
  2  3  1  0  0  0  0
  2  4  1  0  0  0  0
  2  5  1  0  0  0  0
  5  6  2  0  0  0  0
  5  7  1  0  0  0  0
  6  8  1  0  0  0  0
  6 29  1  0  0  0  0
  7  9  2  0  0  0  0
  7 30  1  0  0  0  0
  8 10  2  0  0  0  0
  8 31  1  0  0  0  0
  9 10  1  0  0  0  0
  9 32  1  0  0  0  0
 10 11  1  0  0  0  0
 11 12  1  0  0  0  0
 11 33  1  0  0  0  0
 12 13  1  0  0  0  0
 12 14  2  0  0  0  0
 13 15  1  0  0  0  0
 13 16  1  0  0  0  0
 14 17  1  0  0  0  0
 14 34  1  0  0  0  0
 15 18  2  0  0  0  0
 16 19  1  0  0  0  0
 16 20  2  0  0  0  0
 17 21  1  0  0  0  0
 17 19  2  0  0  0  0
 18 22  1  0  0  0  0
 18 20  1  0  0  0  0
 21 35  1  0  0  0  0
 21 36  1  0  0  0  0
 21 37  1  0  0  0  0
 22 23  1  0  0  0  0
 22 24  1  0  0  0  0
 22 25  1  0  0  0  0
 25 26  1  0  0  0  0
 25 38  1  0  0  0  0
 25 39  1  0  0  0  0
 26 27  1  0  0  0  0
 26 40  1  0  0  0  0
 27 28  3  0  0  0  0
M  END
>  <ID>
830

>  <Parent ID>
486

>  <Generation>
5

>  <Parent Generation>
4

>  <Child No>
5

>  <Fitness>
0.93937

>  <SkelSpheres sim score>
0.92418

>  <FragFp sim score>
0.9548

$$$$
